MODEL 1
REMARK VINA RESULT:    -4.874      0.000      0.000
REMARK INTER + INTRA:          -6.587
REMARK INTER:                  -6.156
REMARK INTRA:                  -0.431
REMARK UNBOUND:                -0.431
REMARK  Name = 
REMARK  6 active torsions:
REMARK  status: ('A' for Active; 'I' for Inactive)
REMARK    1  A    between atoms: C_1  and  C_2
REMARK    2  A    between atoms: C_2  and  C_3
REMARK    3  A    between atoms: C_3  and  N_4
REMARK    4  A    between atoms: C_12  and  C_14
REMARK    5  A    between atoms: C_17  and  S_20
REMARK    6  A    between atoms: S_20  and  N_21
REMARK                            x       y       z     vdW  Elec       q    Type
REMARK                         _______ _______ _______ _____ _____    ______ ____
ROOT
ATOM      1  N   UNL     1     -33.425 -10.849  15.658  0.00  0.00    -0.300 N 
ATOM      2  C   UNL     1     -32.849 -11.983  16.391  0.00  0.00    +0.109 C 
ATOM      3  C   UNL     1     -31.327 -12.037  16.210  0.00  0.00    +0.038 C 
ATOM      4  C   UNL     1     -30.612 -10.699  16.478  0.00  0.00    +0.110 C 
ATOM      5  N   UNL     1     -31.221  -9.951  17.594  0.00  0.00    -0.287 N 
ATOM      6  C   UNL     1     -32.492  -9.219  17.425  0.00  0.00    +0.204 C 
ATOM      7  C   UNL     1     -33.191  -9.498  16.117  0.00  0.00    +0.233 C 
ATOM      8  O   UNL     1     -33.608  -8.520  15.438  0.00  0.00    -0.274 OA
ATOM      9  C   UNL     1     -30.486  -9.740  18.819  0.00  0.00    +0.265 C 
ATOM     10  O   UNL     1     -30.571  -8.626  19.405  0.00  0.00    -0.268 OA
ENDROOT
BRANCH   9  11
ATOM     11  C   UNL     1     -29.652 -10.803  19.425  0.00  0.00    +0.126 A 
ATOM     12  C   UNL     1     -30.094 -11.503  20.560  0.00  0.00    +0.035 A 
ATOM     13  C   UNL     1     -29.296 -12.515  21.098  0.00  0.00    +0.032 A 
ATOM     14  C   UNL     1     -28.072 -12.833  20.500  0.00  0.00    +0.123 A 
ATOM     15  C   UNL     1     -27.667 -12.117  19.369  0.00  0.00    +0.140 A 
ATOM     16  N   UNL     1     -28.459 -11.135  18.863  0.00  0.00    -0.248 NA
BRANCH  14  17
ATOM     17  S   UNL     1     -27.048 -14.098  21.169  0.00  0.00    +0.057 S 
ATOM     18  O   UNL     1     -27.883 -15.062  21.967  0.00  0.00    -0.153 OA
ATOM     19  O   UNL     1     -26.011 -13.480  22.062  0.00  0.00    -0.153 OA
BRANCH  17  20
ATOM     20  N   UNL     1     -26.269 -14.960  19.888  0.00  0.00    -0.203 NA
ATOM     21  H   UNL     1     -26.598 -15.950  19.940  0.00  0.00    +0.144 HD
ATOM     22  H   UNL     1     -26.634 -14.568  18.991  0.00  0.00    +0.144 HD
ENDBRANCH  17  20
ENDBRANCH  14  17
ENDBRANCH   9  11
BRANCH   1  23
ATOM     23  C   UNL     1     -34.275 -11.111  14.487  0.00  0.00    +0.107 C 
BRANCH  23  25
ATOM     24  C   UNL     1     -33.839 -12.811  12.644  0.00  0.00    +0.005 C 
ATOM     25  C   UNL     1     -33.434 -11.471  13.255  0.00  0.00    +0.016 C 
ENDBRANCH  23  25
ENDBRANCH   1  23
TORSDOF 5
ENDMDL
MODEL 2
REMARK VINA RESULT:    -4.103      3.386      7.681
REMARK INTER + INTRA:          -5.613
REMARK INTER:                  -5.031
REMARK INTRA:                  -0.583
REMARK UNBOUND:                -0.431
REMARK  Name = 
REMARK  6 active torsions:
REMARK  status: ('A' for Active; 'I' for Inactive)
REMARK    1  A    between atoms: C_1  and  C_2
REMARK    2  A    between atoms: C_2  and  C_3
REMARK    3  A    between atoms: C_3  and  N_4
REMARK    4  A    between atoms: C_12  and  C_14
REMARK    5  A    between atoms: C_17  and  S_20
REMARK    6  A    between atoms: S_20  and  N_21
REMARK                            x       y       z     vdW  Elec       q    Type
REMARK                         _______ _______ _______ _____ _____    ______ ____
ROOT
ATOM      1  N   UNL     1     -28.868 -12.483  20.193  0.00  0.00    -0.300 N 
ATOM      2  C   UNL     1     -29.105 -12.909  18.809  0.00  0.00    +0.109 C 
ATOM      3  C   UNL     1     -30.561 -13.348  18.612  0.00  0.00    +0.038 C 
ATOM      4  C   UNL     1     -31.600 -12.338  19.135  0.00  0.00    +0.110 C 
ATOM      5  N   UNL     1     -31.188 -10.940  18.909  0.00  0.00    -0.287 N 
ATOM      6  C   UNL     1     -30.162 -10.296  19.753  0.00  0.00    +0.204 C 
ATOM      7  C   UNL     1     -29.442 -11.248  20.678  0.00  0.00    +0.233 C 
ATOM      8  O   UNL     1     -29.316 -10.926  21.891  0.00  0.00    -0.274 OA
ATOM      9  C   UNL     1     -31.925 -10.100  17.995  0.00  0.00    +0.265 C 
ATOM     10  O   UNL     1     -32.126  -8.891  18.295  0.00  0.00    -0.268 OA
ENDROOT
BRANCH   9  11
ATOM     11  C   UNL     1     -32.433 -10.607  16.700  0.00  0.00    +0.126 A 
ATOM     12  C   UNL     1     -31.572 -10.755  15.600  0.00  0.00    +0.035 A 
ATOM     13  C   UNL     1     -32.074 -11.256  14.396  0.00  0.00    +0.032 A 
ATOM     14  C   UNL     1     -33.421 -11.617  14.297  0.00  0.00    +0.123 A 
ATOM     15  C   UNL     1     -34.247 -11.460  15.415  0.00  0.00    +0.140 A 
ATOM     16  N   UNL     1     -33.738 -10.969  16.575  0.00  0.00    -0.248 NA
BRANCH  14  17
ATOM     17  S   UNL     1     -34.074 -12.241  12.787  0.00  0.00    +0.057 S 
ATOM     18  O   UNL     1     -35.047 -13.353  13.071  0.00  0.00    -0.153 OA
ATOM     19  O   UNL     1     -32.951 -12.767  11.938  0.00  0.00    -0.153 OA
BRANCH  17  20
ATOM     20  N   UNL     1     -34.899 -10.980  11.939  0.00  0.00    -0.203 NA
ATOM     21  H   UNL     1     -35.495 -11.438  11.213  0.00  0.00    +0.144 HD
ATOM     22  H   UNL     1     -35.548 -10.527  12.621  0.00  0.00    +0.144 HD
ENDBRANCH  17  20
ENDBRANCH  14  17
ENDBRANCH   9  11
BRANCH   1  23
ATOM     23  C   UNL     1     -28.005 -13.302  21.057  0.00  0.00    +0.107 C 
BRANCH  23  25
ATOM     24  C   UNL     1     -25.687 -14.338  21.238  0.00  0.00    +0.005 C 
ATOM     25  C   UNL     1     -26.765 -13.799  20.301  0.00  0.00    +0.016 C 
ENDBRANCH  23  25
ENDBRANCH   1  23
TORSDOF 5
ENDMDL
MODEL 3
REMARK VINA RESULT:    -3.480      2.581      3.767
REMARK INTER + INTRA:          -4.827
REMARK INTER:                  -4.612
REMARK INTRA:                  -0.215
REMARK UNBOUND:                -0.431
REMARK  Name = 
REMARK  6 active torsions:
REMARK  status: ('A' for Active; 'I' for Inactive)
REMARK    1  A    between atoms: C_1  and  C_2
REMARK    2  A    between atoms: C_2  and  C_3
REMARK    3  A    between atoms: C_3  and  N_4
REMARK    4  A    between atoms: C_12  and  C_14
REMARK    5  A    between atoms: C_17  and  S_20
REMARK    6  A    between atoms: S_20  and  N_21
REMARK                            x       y       z     vdW  Elec       q    Type
REMARK                         _______ _______ _______ _____ _____    ______ ____
ROOT
ATOM      1  N   UNL     1     -34.079  -9.795  14.707  0.00  0.00    -0.300 N 
ATOM      2  C   UNL     1     -33.121  -9.577  15.798  0.00  0.00    +0.109 C 
ATOM      3  C   UNL     1     -33.409 -10.513  16.977  0.00  0.00    +0.038 C 
ATOM      4  C   UNL     1     -33.568 -11.994  16.582  0.00  0.00    +0.110 C 
ATOM      5  N   UNL     1     -32.646 -12.389  15.502  0.00  0.00    -0.287 N 
ATOM      6  C   UNL     1     -32.897 -12.005  14.099  0.00  0.00    +0.204 C 
ATOM      7  C   UNL     1     -34.019 -11.010  13.926  0.00  0.00    +0.233 C 
ATOM      8  O   UNL     1     -34.897 -11.241  13.050  0.00  0.00    -0.274 OA
ATOM      9  C   UNL     1     -31.588 -13.339  15.756  0.00  0.00    +0.265 C 
ATOM     10  O   UNL     1     -31.316 -14.207  14.881  0.00  0.00    -0.268 OA
ENDROOT
BRANCH   9  11
ATOM     11  C   UNL     1     -30.792 -13.311  17.004  0.00  0.00    +0.126 A 
ATOM     12  C   UNL     1     -29.412 -13.055  16.970  0.00  0.00    +0.035 A 
ATOM     13  C   UNL     1     -28.690 -13.013  18.165  0.00  0.00    +0.032 A 
ATOM     14  C   UNL     1     -29.345 -13.212  19.384  0.00  0.00    +0.123 A 
ATOM     15  C   UNL     1     -30.721 -13.460  19.380  0.00  0.00    +0.140 A 
ATOM     16  N   UNL     1     -31.403 -13.498  18.205  0.00  0.00    -0.248 NA
BRANCH  14  17
ATOM     17  S   UNL     1     -28.451 -13.172  20.900  0.00  0.00    +0.057 S 
ATOM     18  O   UNL     1     -28.934 -12.027  21.748  0.00  0.00    -0.153 OA
ATOM     19  O   UNL     1     -26.987 -12.995  20.611  0.00  0.00    -0.153 OA
BRANCH  17  20
ATOM     20  N   UNL     1     -28.696 -14.650  21.764  0.00  0.00    -0.203 NA
ATOM     21  H   UNL     1     -29.117 -15.331  21.093  0.00  0.00    +0.144 HD
ATOM     22  H   UNL     1     -27.750 -15.017  22.014  0.00  0.00    +0.144 HD
ENDBRANCH  17  20
ENDBRANCH  14  17
ENDBRANCH   9  11
BRANCH   1  23
ATOM     23  C   UNL     1     -35.062  -8.747  14.396  0.00  0.00    +0.107 C 
BRANCH  23  25
ATOM     24  C   UNL     1     -35.062  -6.211  14.612  0.00  0.00    +0.005 C 
ATOM     25  C   UNL     1     -34.916  -7.545  15.340  0.00  0.00    +0.016 C 
ENDBRANCH  23  25
ENDBRANCH   1  23
TORSDOF 5
ENDMDL
MODEL 4
REMARK VINA RESULT:    -3.301      4.488      6.278
REMARK INTER + INTRA:          -4.600
REMARK INTER:                  -4.010
REMARK INTRA:                  -0.590
REMARK UNBOUND:                -0.431
REMARK  Name = 
REMARK  6 active torsions:
REMARK  status: ('A' for Active; 'I' for Inactive)
REMARK    1  A    between atoms: C_1  and  C_2
REMARK    2  A    between atoms: C_2  and  C_3
REMARK    3  A    between atoms: C_3  and  N_4
REMARK    4  A    between atoms: C_12  and  C_14
REMARK    5  A    between atoms: C_17  and  S_20
REMARK    6  A    between atoms: S_20  and  N_21
REMARK                            x       y       z     vdW  Elec       q    Type
REMARK                         _______ _______ _______ _____ _____    ______ ____
ROOT
ATOM      1  N   UNL     1     -31.091 -14.012  14.301  0.00  0.00    -0.300 N 
ATOM      2  C   UNL     1     -31.362 -13.761  15.721  0.00  0.00    +0.109 C 
ATOM      3  C   UNL     1     -30.814 -12.396  16.152  0.00  0.00    +0.038 C 
ATOM      4  C   UNL     1     -31.223 -11.232  15.229  0.00  0.00    +0.110 C 
ATOM      5  N   UNL     1     -32.600 -11.375  14.723  0.00  0.00    -0.287 N 
ATOM      6  C   UNL     1     -32.927 -12.325  13.641  0.00  0.00    +0.204 C 
ATOM      7  C   UNL     1     -31.797 -13.262  13.287  0.00  0.00    +0.233 C 
ATOM      8  O   UNL     1     -31.500 -13.411  12.070  0.00  0.00    -0.274 OA
ATOM      9  C   UNL     1     -33.626 -10.441  15.123  0.00  0.00    +0.265 C 
ATOM     10  O   UNL     1     -34.471 -10.050  14.271  0.00  0.00    -0.268 OA
ENDROOT
BRANCH   9  11
ATOM     11  C   UNL     1     -33.735  -9.945  16.514  0.00  0.00    +0.126 A 
ATOM     12  C   UNL     1     -33.864  -8.572  16.779  0.00  0.00    +0.035 A 
ATOM     13  C   UNL     1     -33.986  -8.134  18.100  0.00  0.00    +0.032 A 
ATOM     14  C   UNL     1     -33.992  -9.062  19.146  0.00  0.00    +0.123 A 
ATOM     15  C   UNL     1     -33.866 -10.422  18.844  0.00  0.00    +0.140 A 
ATOM     16  N   UNL     1     -33.746 -10.825  17.551  0.00  0.00    -0.248 NA
BRANCH  14  17
ATOM     17  S   UNL     1     -34.136  -8.531  20.817  0.00  0.00    +0.057 S 
ATOM     18  O   UNL     1     -34.861  -7.214  20.874  0.00  0.00    -0.153 OA
ATOM     19  O   UNL     1     -32.763  -8.369  21.409  0.00  0.00    -0.153 OA
BRANCH  17  20
ATOM     20  N   UNL     1     -35.025  -9.699  21.730  0.00  0.00    -0.203 NA
ATOM     21  H   UNL     1     -35.774 -10.071  21.104  0.00  0.00    +0.144 HD
ATOM     22  H   UNL     1     -34.374 -10.492  21.927  0.00  0.00    +0.144 HD
ENDBRANCH  17  20
ENDBRANCH  14  17
ENDBRANCH   9  11
BRANCH   1  23
ATOM     23  C   UNL     1     -30.130 -15.062  13.930  0.00  0.00    +0.107 C 
BRANCH  23  25
ATOM     24  C   UNL     1     -27.896 -14.633  12.791  0.00  0.00    +0.005 C 
ATOM     25  C   UNL     1     -28.683 -14.582  14.098  0.00  0.00    +0.016 C 
ENDBRANCH  23  25
ENDBRANCH   1  23
TORSDOF 5
ENDMDL
MODEL 5
REMARK VINA RESULT:    -2.825      3.365      5.321
REMARK INTER + INTRA:          -4.000
REMARK INTER:                  -3.431
REMARK INTRA:                  -0.569
REMARK UNBOUND:                -0.431
REMARK  Name = 
REMARK  6 active torsions:
REMARK  status: ('A' for Active; 'I' for Inactive)
REMARK    1  A    between atoms: C_1  and  C_2
REMARK    2  A    between atoms: C_2  and  C_3
REMARK    3  A    between atoms: C_3  and  N_4
REMARK    4  A    between atoms: C_12  and  C_14
REMARK    5  A    between atoms: C_17  and  S_20
REMARK    6  A    between atoms: S_20  and  N_21
REMARK                            x       y       z     vdW  Elec       q    Type
REMARK                         _______ _______ _______ _____ _____    ______ ____
ROOT
ATOM      1  N   UNL     1     -30.785 -13.283  14.893  0.00  0.00    -0.300 N 
ATOM      2  C   UNL     1     -31.310 -11.969  15.283  0.00  0.00    +0.109 C 
ATOM      3  C   UNL     1     -32.121 -12.065  16.580  0.00  0.00    +0.038 C 
ATOM      4  C   UNL     1     -31.398 -12.806  17.722  0.00  0.00    +0.110 C 
ATOM      5  N   UNL     1     -29.951 -12.524  17.746  0.00  0.00    -0.287 N 
ATOM      6  C   UNL     1     -29.030 -13.152  16.778  0.00  0.00    +0.204 C 
ATOM      7  C   UNL     1     -29.725 -13.895  15.663  0.00  0.00    +0.233 C 
ATOM      8  O   UNL     1     -29.336 -15.062  15.385  0.00  0.00    -0.274 OA
ATOM      9  C   UNL     1     -29.367 -11.793  18.846  0.00  0.00    +0.265 C 
ATOM     10  O   UNL     1     -28.242 -12.148  19.294  0.00  0.00    -0.268 OA
ENDROOT
BRANCH   9  11
ATOM     11  C   UNL     1     -30.037 -10.620  19.451  0.00  0.00    +0.126 A 
ATOM     12  C   UNL     1     -30.188 -10.518  20.844  0.00  0.00    +0.035 A 
ATOM     13  C   UNL     1     -30.805  -9.390  21.389  0.00  0.00    +0.032 A 
ATOM     14  C   UNL     1     -31.257  -8.367  20.549  0.00  0.00    +0.123 A 
ATOM     15  C   UNL     1     -31.086  -8.501  19.168  0.00  0.00    +0.140 A 
ATOM     16  N   UNL     1     -30.483  -9.608  18.660  0.00  0.00    -0.248 NA
BRANCH  14  17
ATOM     17  S   UNL     1     -32.046  -6.942  21.216  0.00  0.00    +0.057 S 
ATOM     18  O   UNL     1     -31.073  -6.168  22.062  0.00  0.00    -0.153 OA
ATOM     19  O   UNL     1     -33.213  -7.367  22.061  0.00  0.00    -0.153 OA
BRANCH  17  20
ATOM     20  N   UNL     1     -32.601  -5.925  19.932  0.00  0.00    -0.203 NA
ATOM     21  H   UNL     1     -32.467  -4.936  20.244  0.00  0.00    +0.144 HD
ATOM     22  H   UNL     1     -31.957  -6.076  19.123  0.00  0.00    +0.144 HD
ENDBRANCH  17  20
ENDBRANCH  14  17
ENDBRANCH   9  11
BRANCH   1  23
ATOM     23  C   UNL     1     -31.318 -13.940  13.689  0.00  0.00    +0.107 C 
BRANCH  23  25
ATOM     24  C   UNL     1     -33.131 -13.396  11.988  0.00  0.00    +0.005 C 
ATOM     25  C   UNL     1     -31.862 -12.913  12.687  0.00  0.00    +0.016 C 
ENDBRANCH  23  25
ENDBRANCH   1  23
TORSDOF 5
ENDMDL
MODEL 6
REMARK VINA RESULT:    -2.251      4.191      7.372
REMARK INTER + INTRA:          -3.275
REMARK INTER:                  -3.122
REMARK INTRA:                  -0.153
REMARK UNBOUND:                -0.431
REMARK  Name = 
REMARK  6 active torsions:
REMARK  status: ('A' for Active; 'I' for Inactive)
REMARK    1  A    between atoms: C_1  and  C_2
REMARK    2  A    between atoms: C_2  and  C_3
REMARK    3  A    between atoms: C_3  and  N_4
REMARK    4  A    between atoms: C_12  and  C_14
REMARK    5  A    between atoms: C_17  and  S_20
REMARK    6  A    between atoms: S_20  and  N_21
REMARK                            x       y       z     vdW  Elec       q    Type
REMARK                         _______ _______ _______ _____ _____    ______ ____
ROOT
ATOM      1  N   UNL     1     -32.955  -8.535  20.925  0.00  0.00    -0.300 N 
ATOM      2  C   UNL     1     -33.741  -9.381  20.018  0.00  0.00    +0.109 C 
ATOM      3  C   UNL     1     -33.868  -8.732  18.635  0.00  0.00    +0.038 C 
ATOM      4  C   UNL     1     -32.530  -8.259  18.035  0.00  0.00    +0.110 C 
ATOM      5  N   UNL     1     -31.419  -9.177  18.348  0.00  0.00    -0.287 N 
ATOM      6  C   UNL     1     -30.793  -9.198  19.685  0.00  0.00    +0.204 C 
ATOM      7  C   UNL     1     -31.532  -8.385  20.721  0.00  0.00    +0.233 C 
ATOM      8  O   UNL     1     -30.872  -7.588  21.442  0.00  0.00    -0.274 OA
ATOM      9  C   UNL     1     -30.774  -9.929  17.297  0.00  0.00    +0.265 C 
ATOM     10  O   UNL     1     -29.522 -10.080  17.326  0.00  0.00    -0.268 OA
ENDROOT
BRANCH   9  11
ATOM     11  C   UNL     1     -31.542 -10.553  16.196  0.00  0.00    +0.126 A 
ATOM     12  C   UNL     1     -31.344 -11.901  15.856  0.00  0.00    +0.035 A 
ATOM     13  C   UNL     1     -32.098 -12.470  14.826  0.00  0.00    +0.032 A 
ATOM     14  C   UNL     1     -33.051 -11.700  14.151  0.00  0.00    +0.123 A 
ATOM     15  C   UNL     1     -33.224 -10.362  14.520  0.00  0.00    +0.140 A 
ATOM     16  N   UNL     1     -32.478  -9.830  15.523  0.00  0.00    -0.248 NA
BRANCH  14  17
ATOM     17  S   UNL     1     -34.004 -12.395  12.845  0.00  0.00    +0.057 S 
ATOM     18  O   UNL     1     -35.062 -13.302  13.412  0.00  0.00    -0.153 OA
ATOM     19  O   UNL     1     -33.105 -13.186  11.938  0.00  0.00    -0.153 OA
BRANCH  17  20
ATOM     20  N   UNL     1     -34.771 -11.135  11.944  0.00  0.00    -0.203 NA
ATOM     21  H   UNL     1     -34.386 -10.229  12.295  0.00  0.00    +0.144 HD
ATOM     22  H   UNL     1     -34.456 -11.233  10.953  0.00  0.00    +0.144 HD
ENDBRANCH  17  20
ENDBRANCH  14  17
ENDBRANCH   9  11
BRANCH   1  23
ATOM     23  C   UNL     1     -33.626  -7.886  22.061  0.00  0.00    +0.107 C 
BRANCH  23  25
ATOM     24  C   UNL     1     -34.133  -5.608  21.047  0.00  0.00    +0.005 C 
ATOM     25  C   UNL     1     -34.714  -6.913  21.587  0.00  0.00    +0.016 C 
ENDBRANCH  23  25
ENDBRANCH   1  23
TORSDOF 5
ENDMDL
MODEL 7
REMARK VINA RESULT:    -2.152      4.884      7.372
REMARK INTER + INTRA:          -3.149
REMARK INTER:                  -2.757
REMARK INTRA:                  -0.393
REMARK UNBOUND:                -0.431
REMARK  Name = 
REMARK  6 active torsions:
REMARK  status: ('A' for Active; 'I' for Inactive)
REMARK    1  A    between atoms: C_1  and  C_2
REMARK    2  A    between atoms: C_2  and  C_3
REMARK    3  A    between atoms: C_3  and  N_4
REMARK    4  A    between atoms: C_12  and  C_14
REMARK    5  A    between atoms: C_17  and  S_20
REMARK    6  A    between atoms: S_20  and  N_21
REMARK                            x       y       z     vdW  Elec       q    Type
REMARK                         _______ _______ _______ _____ _____    ______ ____
ROOT
ATOM      1  N   UNL     1     -31.991  -7.666  20.553  0.00  0.00    -0.300 N 
ATOM      2  C   UNL     1     -31.306  -8.548  19.601  0.00  0.00    +0.109 C 
ATOM      3  C   UNL     1     -32.124  -9.820  19.345  0.00  0.00    +0.038 C 
ATOM      4  C   UNL     1     -33.601  -9.559  18.995  0.00  0.00    +0.110 C 
ATOM      5  N   UNL     1     -33.776  -8.359  18.157  0.00  0.00    -0.287 N 
ATOM      6  C   UNL     1     -33.691  -7.001  18.731  0.00  0.00    +0.204 C 
ATOM      7  C   UNL     1     -33.194  -6.969  20.156  0.00  0.00    +0.233 C 
ATOM      8  O   UNL     1     -33.834  -6.283  21.000  0.00  0.00    -0.274 OA
ATOM      9  C   UNL     1     -34.244  -8.480  16.796  0.00  0.00    +0.265 C 
ATOM     10  O   UNL     1     -35.062  -7.630  16.347  0.00  0.00    -0.268 OA
ENDROOT
BRANCH   9  11
ATOM     11  C   UNL     1     -33.773  -9.559  15.898  0.00  0.00    +0.126 A 
ATOM     12  C   UNL     1     -34.685 -10.318  15.147  0.00  0.00    +0.035 A 
ATOM     13  C   UNL     1     -34.211 -11.316  14.292  0.00  0.00    +0.032 A 
ATOM     14  C   UNL     1     -32.836 -11.544  14.179  0.00  0.00    +0.123 A 
ATOM     15  C   UNL     1     -31.957 -10.765  14.939  0.00  0.00    +0.140 A 
ATOM     16  N   UNL     1     -32.441  -9.801  15.766  0.00  0.00    -0.248 NA
BRANCH  14  17
ATOM     17  S   UNL     1     -32.219 -12.802  13.115  0.00  0.00    +0.057 S 
ATOM     18  O   UNL     1     -31.443 -12.181  11.986  0.00  0.00    -0.153 OA
ATOM     19  O   UNL     1     -33.370 -13.589  12.554  0.00  0.00    -0.153 OA
BRANCH  17  20
ATOM     20  N   UNL     1     -31.173 -13.857  13.998  0.00  0.00    -0.203 NA
ATOM     21  H   UNL     1     -30.310 -13.985  13.423  0.00  0.00    +0.144 HD
ATOM     22  H   UNL     1     -30.885 -13.347  14.864  0.00  0.00    +0.144 HD
ENDBRANCH  17  20
ENDBRANCH  14  17
ENDBRANCH   9  11
BRANCH   1  23
ATOM     23  C   UNL     1     -31.412  -7.468  21.891  0.00  0.00    +0.107 C 
BRANCH  23  25
ATOM     24  C   UNL     1     -30.334  -5.267  21.206  0.00  0.00    +0.005 C 
ATOM     25  C   UNL     1     -30.118  -6.647  21.824  0.00  0.00    +0.016 C 
ENDBRANCH  23  25
ENDBRANCH   1  23
TORSDOF 5
ENDMDL
