MODEL 1
REMARK VINA RESULT:    -4.476      0.000      0.000
REMARK INTER + INTRA:          -6.407
REMARK INTER:                  -5.784
REMARK INTRA:                  -0.623
REMARK UNBOUND:                -0.623
REMARK  Name = 
REMARK  6 active torsions:
REMARK  status: ('A' for Active; 'I' for Inactive)
REMARK    1  A    between atoms: C_1  and  S_2
REMARK    2  A    between atoms: S_2  and  N_5
REMARK    3  A    between atoms: C_9  and  C_10
REMARK    4  A    between atoms: C_10  and  N_11
REMARK    5  A    between atoms: N_11  and  C_12
REMARK    6  A    between atoms: C_12  and  C_13
REMARK                            x       y       z     vdW  Elec       q    Type
REMARK                         _______ _______ _______ _____ _____    ______ ____
ROOT
ATOM      1  C   UNL     1     -29.738 -13.663  17.305  0.00  0.00    +0.101 C 
ENDROOT
BRANCH   1   6
ATOM      2  N   UNL     1     -31.313 -11.831  16.786  0.00  0.00    -0.177 NA
ATOM      3  C   UNL     1     -32.341 -11.790  15.735  0.00  0.00    +0.109 C 
ATOM      4  C   UNL     1     -31.725 -12.330  14.460  0.00  0.00    +0.019 C 
ATOM      5  C   UNL     1     -30.639 -13.251  14.950  0.00  0.00    +0.023 C 
ATOM      6  C   UNL     1     -30.177 -12.613  16.258  0.00  0.00    +0.093 C 
BRANCH   2   8
ATOM      7  C   UNL     1     -31.136  -9.910  18.957  0.00  0.00    +0.215 C 
ATOM      8  S   UNL     1     -30.822 -10.210  17.230  0.00  0.00    +0.029 S 
ATOM      9  O   UNL     1     -31.609  -9.214  16.424  0.00  0.00    -0.158 OA
ATOM     10  O   UNL     1     -29.356 -10.019  16.953  0.00  0.00    -0.158 OA
ENDBRANCH   2   8
ENDBRANCH   1   6
BRANCH   1  11
ATOM     11  N   UNL     1     -28.330 -13.516  17.721  0.00  0.00    -0.309 NA
ATOM     12  H   UNL     1     -27.917 -14.445  17.969  0.00  0.00    +0.122 HD
BRANCH  11  13
ATOM     13  C   UNL     1     -28.168 -12.595  18.852  0.00  0.00    +0.136 C 
BRANCH  13  14
ATOM     14  C   UNL     1     -27.344 -13.250  19.919  0.00  0.00    +0.055 A 
ATOM     15  C   UNL     1     -27.940 -13.711  21.102  0.00  0.00    +0.024 A 
ATOM     16  C   UNL     1     -27.153 -14.350  22.062  0.00  0.00    +0.003 A 
ATOM     17  C   UNL     1     -25.788 -14.532  21.833  0.00  0.00    +0.020 A 
ATOM     18  C   UNL     1     -25.230 -14.071  20.638  0.00  0.00    +0.111 A 
ATOM     19  N   UNL     1     -26.012 -13.452  19.714  0.00  0.00    -0.259 NA
ENDBRANCH  13  14
ENDBRANCH  11  13
ENDBRANCH   1  11
TORSDOF 5
ENDMDL
MODEL 2
REMARK VINA RESULT:    -4.409      2.224      5.438
REMARK INTER + INTRA:          -6.321
REMARK INTER:                  -5.180
REMARK INTRA:                  -1.140
REMARK UNBOUND:                -0.623
REMARK  Name = 
REMARK  6 active torsions:
REMARK  status: ('A' for Active; 'I' for Inactive)
REMARK    1  A    between atoms: C_1  and  S_2
REMARK    2  A    between atoms: S_2  and  N_5
REMARK    3  A    between atoms: C_9  and  C_10
REMARK    4  A    between atoms: C_10  and  N_11
REMARK    5  A    between atoms: N_11  and  C_12
REMARK    6  A    between atoms: C_12  and  C_13
REMARK                            x       y       z     vdW  Elec       q    Type
REMARK                         _______ _______ _______ _____ _____    ______ ____
ROOT
ATOM      1  C   UNL     1     -31.247 -13.097  19.459  0.00  0.00    +0.101 C 
ENDROOT
BRANCH   1   6
ATOM      2  N   UNL     1     -29.136 -12.146  18.595  0.00  0.00    -0.177 NA
ATOM      3  C   UNL     1     -27.762 -12.603  18.857  0.00  0.00    +0.109 C 
ATOM      4  C   UNL     1     -27.642 -12.889  20.340  0.00  0.00    +0.019 C 
ATOM      5  C   UNL     1     -29.049 -13.229  20.754  0.00  0.00    +0.023 C 
ATOM      6  C   UNL     1     -29.920 -12.390  19.823  0.00  0.00    +0.093 C 
BRANCH   2   8
ATOM      7  C   UNL     1     -30.338 -10.145  16.868  0.00  0.00    +0.215 C 
ATOM      8  S   UNL     1     -29.147 -10.451  18.156  0.00  0.00    +0.029 S 
ATOM      9  O   UNL     1     -27.787 -10.060  17.648  0.00  0.00    -0.158 OA
ATOM     10  O   UNL     1     -29.486  -9.608  19.354  0.00  0.00    -0.158 OA
ENDBRANCH   2   8
ENDBRANCH   1   6
BRANCH   1  11
ATOM     11  N   UNL     1     -31.075 -14.184  18.477  0.00  0.00    -0.309 NA
ATOM     12  H   UNL     1     -30.072 -14.269  18.188  0.00  0.00    +0.122 HD
BRANCH  11  13
ATOM     13  C   UNL     1     -31.912 -14.007  17.285  0.00  0.00    +0.136 C 
BRANCH  13  14
ATOM     14  C   UNL     1     -31.058 -14.091  16.056  0.00  0.00    +0.055 A 
ATOM     15  C   UNL     1     -29.754 -14.604  16.123  0.00  0.00    +0.024 A 
ATOM     16  C   UNL     1     -28.995 -14.703  14.954  0.00  0.00    +0.003 A 
ATOM     17  C   UNL     1     -29.543 -14.301  13.735  0.00  0.00    +0.020 A 
ATOM     18  C   UNL     1     -30.849 -13.807  13.702  0.00  0.00    +0.111 A 
ATOM     19  N   UNL     1     -31.573 -13.719  14.850  0.00  0.00    -0.259 NA
ENDBRANCH  13  14
ENDBRANCH  11  13
ENDBRANCH   1  11
TORSDOF 5
ENDMDL
MODEL 3
REMARK VINA RESULT:    -4.369      2.007      2.617
REMARK INTER + INTRA:          -6.269
REMARK INTER:                  -5.248
REMARK INTRA:                  -1.021
REMARK UNBOUND:                -0.623
REMARK  Name = 
REMARK  6 active torsions:
REMARK  status: ('A' for Active; 'I' for Inactive)
REMARK    1  A    between atoms: C_1  and  S_2
REMARK    2  A    between atoms: S_2  and  N_5
REMARK    3  A    between atoms: C_9  and  C_10
REMARK    4  A    between atoms: C_10  and  N_11
REMARK    5  A    between atoms: N_11  and  C_12
REMARK    6  A    between atoms: C_12  and  C_13
REMARK                            x       y       z     vdW  Elec       q    Type
REMARK                         _______ _______ _______ _____ _____    ______ ____
ROOT
ATOM      1  C   UNL     1     -29.303 -10.255  18.089  0.00  0.00    +0.101 C 
ENDROOT
BRANCH   1   6
ATOM      2  N   UNL     1     -30.676 -11.867  16.814  0.00  0.00    -0.177 NA
ATOM      3  C   UNL     1     -31.391 -11.645  15.547  0.00  0.00    +0.109 C 
ATOM      4  C   UNL     1     -32.099 -10.309  15.640  0.00  0.00    +0.019 C 
ATOM      5  C   UNL     1     -31.268  -9.531  16.625  0.00  0.00    +0.023 C 
ATOM      6  C   UNL     1     -30.719 -10.598  17.569  0.00  0.00    +0.093 C 
BRANCH   2   8
ATOM      7  C   UNL     1     -30.694 -14.736  17.258  0.00  0.00    +0.215 C 
ATOM      8  S   UNL     1     -31.413 -13.173  17.717  0.00  0.00    +0.029 S 
ATOM      9  O   UNL     1     -32.885 -13.220  17.411  0.00  0.00    -0.158 OA
ATOM     10  O   UNL     1     -31.223 -12.955  19.192  0.00  0.00    -0.158 OA
ENDBRANCH   2   8
ENDBRANCH   1   6
BRANCH   1  11
ATOM     11  N   UNL     1     -28.799 -11.222  19.082  0.00  0.00    -0.309 NA
ATOM     12  H   UNL     1     -28.541 -10.739  19.974  0.00  0.00    +0.122 HD
BRANCH  11  13
ATOM     13  C   UNL     1     -27.646 -11.987  18.592  0.00  0.00    +0.136 C 
BRANCH  13  14
ATOM     14  C   UNL     1     -27.138 -12.882  19.682  0.00  0.00    +0.055 A 
ATOM     15  C   UNL     1     -28.022 -13.465  20.602  0.00  0.00    +0.024 A 
ATOM     16  C   UNL     1     -27.522 -14.322  21.584  0.00  0.00    +0.003 A 
ATOM     17  C   UNL     1     -26.155 -14.598  21.635  0.00  0.00    +0.020 A 
ATOM     18  C   UNL     1     -25.304 -14.010  20.696  0.00  0.00    +0.111 A 
ATOM     19  N   UNL     1     -25.809 -13.177  19.746  0.00  0.00    -0.259 NA
ENDBRANCH  13  14
ENDBRANCH  11  13
ENDBRANCH   1  11
TORSDOF 5
ENDMDL
MODEL 4
REMARK VINA RESULT:    -4.228      2.341      5.799
REMARK INTER + INTRA:          -6.087
REMARK INTER:                  -4.986
REMARK INTRA:                  -1.101
REMARK UNBOUND:                -0.623
REMARK  Name = 
REMARK  6 active torsions:
REMARK  status: ('A' for Active; 'I' for Inactive)
REMARK    1  A    between atoms: C_1  and  S_2
REMARK    2  A    between atoms: S_2  and  N_5
REMARK    3  A    between atoms: C_9  and  C_10
REMARK    4  A    between atoms: C_10  and  N_11
REMARK    5  A    between atoms: N_11  and  C_12
REMARK    6  A    between atoms: C_12  and  C_13
REMARK                            x       y       z     vdW  Elec       q    Type
REMARK                         _______ _______ _______ _____ _____    ______ ____
ROOT
ATOM      1  C   UNL     1     -30.690 -13.057  20.480  0.00  0.00    +0.101 C 
ENDROOT
BRANCH   1   6
ATOM      2  N   UNL     1     -28.366 -13.297  19.676  0.00  0.00    -0.177 NA
ATOM      3  C   UNL     1     -27.223 -13.901  20.377  0.00  0.00    +0.109 C 
ATOM      4  C   UNL     1     -27.235 -13.400  21.807  0.00  0.00    +0.019 C 
ATOM      5  C   UNL     1     -28.685 -13.085  22.062  0.00  0.00    +0.023 C 
ATOM      6  C   UNL     1     -29.215 -12.650  20.698  0.00  0.00    +0.093 C 
BRANCH   2   8
ATOM      7  C   UNL     1     -28.900 -10.732  18.423  0.00  0.00    +0.215 C 
ATOM      8  S   UNL     1     -27.815 -12.143  18.480  0.00  0.00    +0.029 S 
ATOM      9  O   UNL     1     -27.813 -12.794  17.125  0.00  0.00    -0.158 OA
ATOM     10  O   UNL     1     -26.422 -11.683  18.807  0.00  0.00    -0.158 OA
ENDBRANCH   2   8
ENDBRANCH   1   6
BRANCH   1  11
ATOM     11  N   UNL     1     -30.885 -13.936  19.311  0.00  0.00    -0.309 NA
ATOM     12  H   UNL     1     -29.964 -14.198  18.887  0.00  0.00    +0.122 HD
BRANCH  11  13
ATOM     13  C   UNL     1     -31.738 -13.329  18.283  0.00  0.00    +0.136 C 
BRANCH  13  14
ATOM     14  C   UNL     1     -31.189 -13.644  16.925  0.00  0.00    +0.055 A 
ATOM     15  C   UNL     1     -31.494 -12.831  15.822  0.00  0.00    +0.024 A 
ATOM     16  C   UNL     1     -30.938 -13.129  14.576  0.00  0.00    +0.003 A 
ATOM     17  C   UNL     1     -30.081 -14.223  14.442  0.00  0.00    +0.020 A 
ATOM     18  C   UNL     1     -29.789 -15.003  15.563  0.00  0.00    +0.111 A 
ATOM     19  N   UNL     1     -30.339 -14.698  16.769  0.00  0.00    -0.259 NA
ENDBRANCH  13  14
ENDBRANCH  11  13
ENDBRANCH   1  11
TORSDOF 5
ENDMDL
MODEL 5
REMARK VINA RESULT:    -4.168      4.071      5.328
REMARK INTER + INTRA:          -6.010
REMARK INTER:                  -4.828
REMARK INTRA:                  -1.182
REMARK UNBOUND:                -0.623
REMARK  Name = 
REMARK  6 active torsions:
REMARK  status: ('A' for Active; 'I' for Inactive)
REMARK    1  A    between atoms: C_1  and  S_2
REMARK    2  A    between atoms: S_2  and  N_5
REMARK    3  A    between atoms: C_9  and  C_10
REMARK    4  A    between atoms: C_10  and  N_11
REMARK    5  A    between atoms: N_11  and  C_12
REMARK    6  A    between atoms: C_12  and  C_13
REMARK                            x       y       z     vdW  Elec       q    Type
REMARK                         _______ _______ _______ _____ _____    ______ ____
ROOT
ATOM      1  C   UNL     1     -31.778 -12.562  18.644  0.00  0.00    +0.101 C 
ENDROOT
BRANCH   1   6
ATOM      2  N   UNL     1     -32.460 -11.292  16.637  0.00  0.00    -0.177 NA
ATOM      3  C   UNL     1     -31.604 -10.539  15.707  0.00  0.00    +0.109 C 
ATOM      4  C   UNL     1     -30.618  -9.734  16.529  0.00  0.00    +0.019 C 
ATOM      5  C   UNL     1     -30.489 -10.523  17.805  0.00  0.00    +0.023 C 
ATOM      6  C   UNL     1     -31.861 -11.167  17.982  0.00  0.00    +0.093 C 
BRANCH   2   8
ATOM      7  C   UNL     1     -34.250  -9.366  15.404  0.00  0.00    +0.215 C 
ATOM      8  S   UNL     1     -34.097 -10.671  16.606  0.00  0.00    +0.029 S 
ATOM      9  O   UNL     1     -34.442 -10.113  17.959  0.00  0.00    -0.158 OA
ATOM     10  O   UNL     1     -35.062 -11.772  16.267  0.00  0.00    -0.158 OA
ENDBRANCH   2   8
ENDBRANCH   1   6
BRANCH   1  11
ATOM     11  N   UNL     1     -32.081 -13.666  17.713  0.00  0.00    -0.309 NA
ATOM     12  H   UNL     1     -32.842 -14.276  18.095  0.00  0.00    +0.122 HD
BRANCH  11  13
ATOM     13  C   UNL     1     -30.905 -14.489  17.410  0.00  0.00    +0.136 C 
BRANCH  13  14
ATOM     14  C   UNL     1     -30.561 -14.357  15.957  0.00  0.00    +0.055 A 
ATOM     15  C   UNL     1     -29.292 -14.725  15.485  0.00  0.00    +0.024 A 
ATOM     16  C   UNL     1     -29.013 -14.624  14.120  0.00  0.00    +0.003 A 
ATOM     17  C   UNL     1     -29.997 -14.169  13.242  0.00  0.00    +0.020 A 
ATOM     18  C   UNL     1     -31.254 -13.823  13.744  0.00  0.00    +0.111 A 
ATOM     19  N   UNL     1     -31.508 -13.928  15.076  0.00  0.00    -0.259 NA
ENDBRANCH  13  14
ENDBRANCH  11  13
ENDBRANCH   1  11
TORSDOF 5
ENDMDL
MODEL 6
REMARK VINA RESULT:    -4.134      2.721      4.068
REMARK INTER + INTRA:          -5.966
REMARK INTER:                  -4.686
REMARK INTRA:                  -1.280
REMARK UNBOUND:                -0.623
REMARK  Name = 
REMARK  6 active torsions:
REMARK  status: ('A' for Active; 'I' for Inactive)
REMARK    1  A    between atoms: C_1  and  S_2
REMARK    2  A    between atoms: S_2  and  N_5
REMARK    3  A    between atoms: C_9  and  C_10
REMARK    4  A    between atoms: C_10  and  N_11
REMARK    5  A    between atoms: N_11  and  C_12
REMARK    6  A    between atoms: C_12  and  C_13
REMARK                            x       y       z     vdW  Elec       q    Type
REMARK                         _______ _______ _______ _____ _____    ______ ____
ROOT
ATOM      1  C   UNL     1     -28.858 -10.633  18.138  0.00  0.00    +0.101 C 
ENDROOT
BRANCH   1   6
ATOM      2  N   UNL     1     -31.194 -10.003  18.640  0.00  0.00    -0.177 NA
ATOM      3  C   UNL     1     -32.394 -10.246  17.824  0.00  0.00    +0.109 C 
ATOM      4  C   UNL     1     -32.055  -9.907  16.387  0.00  0.00    +0.019 C 
ATOM      5  C   UNL     1     -30.567 -10.122  16.309  0.00  0.00    +0.023 C 
ATOM      6  C   UNL     1     -30.070  -9.774  17.710  0.00  0.00    +0.093 C 
BRANCH   2   8
ATOM      7  C   UNL     1     -32.303  -9.123  21.176  0.00  0.00    +0.215 C 
ATOM      8  S   UNL     1     -31.438  -8.631  19.699  0.00  0.00    +0.029 S 
ATOM      9  O   UNL     1     -32.264  -7.595  18.989  0.00  0.00    -0.158 OA
ATOM     10  O   UNL     1     -30.114  -8.028  20.080  0.00  0.00    -0.158 OA
ENDBRANCH   2   8
ENDBRANCH   1   6
BRANCH   1  11
ATOM     11  N   UNL     1     -29.192 -11.638  19.165  0.00  0.00    -0.309 NA
ATOM     12  H   UNL     1     -28.892 -11.313  20.114  0.00  0.00    +0.122 HD
BRANCH  11  13
ATOM     13  C   UNL     1     -28.594 -12.949  18.890  0.00  0.00    +0.136 C 
BRANCH  13  14
ATOM     14  C   UNL     1     -29.259 -13.563  17.694  0.00  0.00    +0.055 A 
ATOM     15  C   UNL     1     -30.643 -13.791  17.682  0.00  0.00    +0.024 A 
ATOM     16  C   UNL     1     -31.239 -14.330  16.540  0.00  0.00    +0.003 A 
ATOM     17  C   UNL     1     -30.457 -14.627  15.423  0.00  0.00    +0.020 A 
ATOM     18  C   UNL     1     -29.083 -14.375  15.465  0.00  0.00    +0.111 A 
ATOM     19  N   UNL     1     -28.520 -13.849  16.585  0.00  0.00    -0.259 NA
ENDBRANCH  13  14
ENDBRANCH  11  13
ENDBRANCH   1  11
TORSDOF 5
ENDMDL
MODEL 7
REMARK VINA RESULT:    -4.124      2.876      6.621
REMARK INTER + INTRA:          -5.953
REMARK INTER:                  -4.751
REMARK INTRA:                  -1.201
REMARK UNBOUND:                -0.623
REMARK  Name = 
REMARK  6 active torsions:
REMARK  status: ('A' for Active; 'I' for Inactive)
REMARK    1  A    between atoms: C_1  and  S_2
REMARK    2  A    between atoms: S_2  and  N_5
REMARK    3  A    between atoms: C_9  and  C_10
REMARK    4  A    between atoms: C_10  and  N_11
REMARK    5  A    between atoms: N_11  and  C_12
REMARK    6  A    between atoms: C_12  and  C_13
REMARK                            x       y       z     vdW  Elec       q    Type
REMARK                         _______ _______ _______ _____ _____    ______ ____
ROOT
ATOM      1  C   UNL     1     -32.111 -11.210  17.237  0.00  0.00    +0.101 C 
ENDROOT
BRANCH   1   6
ATOM      2  N   UNL     1     -29.906 -12.309  17.047  0.00  0.00    -0.177 NA
ATOM      3  C   UNL     1     -29.592 -13.612  16.441  0.00  0.00    +0.109 C 
ATOM      4  C   UNL     1     -30.636 -14.606  16.907  0.00  0.00    +0.019 C 
ATOM      5  C   UNL     1     -31.840 -13.750  17.198  0.00  0.00    +0.023 C 
ATOM      6  C   UNL     1     -31.246 -12.421  17.657  0.00  0.00    +0.093 C 
BRANCH   2   8
ATOM      7  C   UNL     1     -29.380 -11.939  19.879  0.00  0.00    +0.215 C 
ATOM      8  S   UNL     1     -28.696 -11.875  18.236  0.00  0.00    +0.029 S 
ATOM      9  O   UNL     1     -28.221 -10.473  17.974  0.00  0.00    -0.158 OA
ATOM     10  O   UNL     1     -27.525 -12.815  18.150  0.00  0.00    -0.158 OA
ENDBRANCH   2   8
ENDBRANCH   1   6
BRANCH   1  11
ATOM     11  N   UNL     1     -31.770 -10.689  15.900  0.00  0.00    -0.309 NA
ATOM     12  H   UNL     1     -31.317  -9.748  15.972  0.00  0.00    +0.122 HD
BRANCH  11  13
ATOM     13  C   UNL     1     -32.936 -10.600  15.013  0.00  0.00    +0.136 C 
BRANCH  13  14
ATOM     14  C   UNL     1     -32.838 -11.651  13.948  0.00  0.00    +0.055 A 
ATOM     15  C   UNL     1     -33.899 -11.869  13.057  0.00  0.00    +0.024 A 
ATOM     16  C   UNL     1     -33.765 -12.830  12.053  0.00  0.00    +0.003 A 
ATOM     17  C   UNL     1     -32.576 -13.554  11.939  0.00  0.00    +0.020 A 
ATOM     18  C   UNL     1     -31.535 -13.302  12.835  0.00  0.00    +0.111 A 
ATOM     19  N   UNL     1     -31.684 -12.362  13.807  0.00  0.00    -0.259 NA
ENDBRANCH  13  14
ENDBRANCH  11  13
ENDBRANCH   1  11
TORSDOF 5
ENDMDL
MODEL 8
REMARK VINA RESULT:    -4.057      2.355      5.196
REMARK INTER + INTRA:          -5.866
REMARK INTER:                  -5.264
REMARK INTRA:                  -0.602
REMARK UNBOUND:                -0.623
REMARK  Name = 
REMARK  6 active torsions:
REMARK  status: ('A' for Active; 'I' for Inactive)
REMARK    1  A    between atoms: C_1  and  S_2
REMARK    2  A    between atoms: S_2  and  N_5
REMARK    3  A    between atoms: C_9  and  C_10
REMARK    4  A    between atoms: C_10  and  N_11
REMARK    5  A    between atoms: N_11  and  C_12
REMARK    6  A    between atoms: C_12  and  C_13
REMARK                            x       y       z     vdW  Elec       q    Type
REMARK                         _______ _______ _______ _____ _____    ______ ____
ROOT
ATOM      1  C   UNL     1     -28.204 -12.409  18.270  0.00  0.00    +0.101 C 
ENDROOT
BRANCH   1   6
ATOM      2  N   UNL     1     -29.631 -10.510  18.952  0.00  0.00    -0.177 NA
ATOM      3  C   UNL     1     -30.061 -10.141  20.310  0.00  0.00    +0.109 C 
ATOM      4  C   UNL     1     -30.494 -11.407  21.021  0.00  0.00    +0.019 C 
ATOM      5  C   UNL     1     -29.705 -12.491  20.335  0.00  0.00    +0.023 C 
ATOM      6  C   UNL     1     -29.549 -11.984  18.904  0.00  0.00    +0.093 C 
BRANCH   2   8
ATOM      7  C   UNL     1     -31.976 -11.126  17.353  0.00  0.00    +0.215 C 
ATOM      8  S   UNL     1     -30.758  -9.893  17.762  0.00  0.00    +0.029 S 
ATOM      9  O   UNL     1     -30.009  -9.532  16.509  0.00  0.00    -0.158 OA
ATOM     10  O   UNL     1     -31.452  -8.669  18.291  0.00  0.00    -0.158 OA
ENDBRANCH   2   8
ENDBRANCH   1   6
BRANCH   1  11
ATOM     11  N   UNL     1     -28.277 -13.703  17.565  0.00  0.00    -0.309 NA
ATOM     12  H   UNL     1     -27.518 -13.779  16.848  0.00  0.00    +0.122 HD
BRANCH  11  13
ATOM     13  C   UNL     1     -29.577 -13.924  16.921  0.00  0.00    +0.136 C 
BRANCH  13  14
ATOM     14  C   UNL     1     -29.369 -14.282  15.480  0.00  0.00    +0.055 A 
ATOM     15  C   UNL     1     -30.416 -14.161  14.554  0.00  0.00    +0.024 A 
ATOM     16  C   UNL     1     -30.182 -14.467  13.212  0.00  0.00    +0.003 A 
ATOM     17  C   UNL     1     -28.912 -14.881  12.805  0.00  0.00    +0.020 A 
ATOM     18  C   UNL     1     -27.890 -14.978  13.752  0.00  0.00    +0.111 A 
ATOM     19  N   UNL     1     -28.136 -14.675  15.055  0.00  0.00    -0.259 NA
ENDBRANCH  13  14
ENDBRANCH  11  13
ENDBRANCH   1  11
TORSDOF 5
ENDMDL
