MODEL 1
REMARK VINA RESULT:    -0.470      0.000      0.000
REMARK INTER + INTRA:           3.843
REMARK INTER:                  -0.635
REMARK INTRA:                   4.479
REMARK UNBOUND:                 4.479
REMARK  Name = 
REMARK  7 active torsions:
REMARK  status: ('A' for Active; 'I' for Inactive)
REMARK    1  A    between atoms: C_1  and  O_2
REMARK    2  A    between atoms: O_2  and  C_3
REMARK    3  A    between atoms: C_6  and  N_9
REMARK    4  A    between atoms: C_10  and  C_12
REMARK    5  A    between atoms: C_15  and  N_18
REMARK    6  A    between atoms: N_18  and  S_19
REMARK    7  A    between atoms: S_19  and  C_22
REMARK                            x       y       z     vdW  Elec       q    Type
REMARK                         _______ _______ _______ _____ _____    ______ ____
ROOT
ATOM      1  C   UNL     1     -30.455 -10.495  18.761  0.00  0.00    +0.037 A 
ATOM      2  C   UNL     1     -29.694  -9.889  19.775  0.00  0.00    +0.015 A 
ATOM      3  C   UNL     1     -30.294  -9.021  20.691  0.00  0.00    +0.025 A 
ATOM      4  C   UNL     1     -31.662  -8.729  20.610  0.00  0.00    +0.048 A 
ATOM      5  C   UNL     1     -32.426  -9.330  19.593  0.00  0.00    +0.025 A 
ATOM      6  C   UNL     1     -31.826 -10.196  18.676  0.00  0.00    +0.015 A 
ENDROOT
BRANCH   1   8
ATOM      7  N   UNL     1     -30.603 -11.939  16.667  0.00  0.00    -0.281 N 
ATOM      8  C   UNL     1     -29.840 -11.411  17.771  0.00  0.00    +0.248 C 
ATOM      9  O   UNL     1     -28.628 -11.731  17.910  0.00  0.00    -0.270 OA
ATOM     10  H   UNL     1     -31.633 -11.775  16.636  0.00  0.00    +0.155 HD
BRANCH   7  14
ATOM     11  C   UNL     1     -28.934 -14.309  13.549  0.00  0.00    +0.120 A 
ATOM     12  C   UNL     1     -29.818 -13.262  13.261  0.00  0.00    +0.047 A 
ATOM     13  C   UNL     1     -30.362 -12.489  14.291  0.00  0.00    +0.027 A 
ATOM     14  C   UNL     1     -30.045 -12.762  15.629  0.00  0.00    +0.034 A 
ATOM     15  C   UNL     1     -29.136 -13.796  15.919  0.00  0.00    +0.027 A 
ATOM     16  C   UNL     1     -28.592 -14.569  14.888  0.00  0.00    +0.047 A 
BRANCH  11  18
ATOM     17  C   UNL     1     -27.085 -14.959  11.997  0.00  0.00    +0.277 C 
ATOM     18  O   UNL     1     -28.421 -15.060  12.481  0.00  0.00    -0.495 OA
ENDBRANCH  11  18
ENDBRANCH   7  14
ENDBRANCH   1   8
BRANCH   4  19
ATOM     19  N   UNL     1     -32.245  -7.824  21.567  0.00  0.00    -0.216 N 
ATOM     20  H   UNL     1     -31.697  -7.563  22.416  0.00  0.00    +0.174 HD
BRANCH  19  21
ATOM     21  S   UNL     1     -33.769  -7.027  21.342  0.00  0.00    +0.072 S 
ATOM     22  O   UNL     1     -34.844  -7.810  22.045  0.00  0.00    -0.150 OA
ATOM     23  O   UNL     1     -33.703  -5.649  21.938  0.00  0.00    -0.150 OA
BRANCH  21  24
ATOM     24  C   UNL     1     -34.119  -6.882  19.622  0.00  0.00    +0.112 A 
ATOM     25  C   UNL     1     -34.552  -5.652  19.102  0.00  0.00    +0.032 A 
ATOM     26  C   UNL     1     -34.824  -5.520  17.736  0.00  0.00    +0.051 A 
ATOM     27  C   UNL     1     -34.666  -6.617  16.886  0.00  0.00    +0.162 A 
ATOM     28  O   UNL     1     -34.961  -6.517  15.523  0.00  0.00    -0.485 OA
ATOM     29  C   UNL     1     -35.062  -7.683  14.702  0.00  0.00    +0.270 C 
ATOM     30  C   UNL     1     -33.993  -8.709  15.102  0.00  0.00    +0.270 C 
ATOM     31  O   UNL     1     -34.005  -8.909  16.517  0.00  0.00    -0.485 OA
ATOM     32  C   UNL     1     -34.205  -7.839  17.396  0.00  0.00    +0.164 A 
ATOM     33  C   UNL     1     -33.950  -7.980  18.763  0.00  0.00    +0.078 A 
ENDBRANCH  21  24
ENDBRANCH  19  21
ENDBRANCH   4  19
TORSDOF 6
ENDMDL
MODEL 2
REMARK VINA RESULT:     1.153      0.855      1.619
REMARK INTER + INTRA:           6.037
REMARK INTER:                   2.387
REMARK INTRA:                   3.650
REMARK UNBOUND:                 4.479
REMARK  Name = 
REMARK  7 active torsions:
REMARK  status: ('A' for Active; 'I' for Inactive)
REMARK    1  A    between atoms: C_1  and  O_2
REMARK    2  A    between atoms: O_2  and  C_3
REMARK    3  A    between atoms: C_6  and  N_9
REMARK    4  A    between atoms: C_10  and  C_12
REMARK    5  A    between atoms: C_15  and  N_18
REMARK    6  A    between atoms: N_18  and  S_19
REMARK    7  A    between atoms: S_19  and  C_22
REMARK                            x       y       z     vdW  Elec       q    Type
REMARK                         _______ _______ _______ _____ _____    ______ ____
ROOT
ATOM      1  C   UNL     1     -30.072 -10.213  18.596  0.00  0.00    +0.037 A 
ATOM      2  C   UNL     1     -31.141  -9.377  18.232  0.00  0.00    +0.015 A 
ATOM      3  C   UNL     1     -31.700  -8.495  19.160  0.00  0.00    +0.025 A 
ATOM      4  C   UNL     1     -31.214  -8.434  20.474  0.00  0.00    +0.048 A 
ATOM      5  C   UNL     1     -30.148  -9.273  20.842  0.00  0.00    +0.025 A 
ATOM      6  C   UNL     1     -29.590 -10.157  19.915  0.00  0.00    +0.015 A 
ENDROOT
BRANCH   1   8
ATOM      7  N   UNL     1     -30.257 -11.773  16.590  0.00  0.00    -0.281 N 
ATOM      8  C   UNL     1     -29.469 -11.165  17.633  0.00  0.00    +0.248 C 
ATOM      9  O   UNL     1     -28.243 -11.443  17.741  0.00  0.00    -0.270 OA
ATOM     10  H   UNL     1     -31.291 -11.640  16.591  0.00  0.00    +0.155 HD
BRANCH   7  14
ATOM     11  C   UNL     1     -28.645 -14.265  13.538  0.00  0.00    +0.120 A 
ATOM     12  C   UNL     1     -29.637 -13.322  13.246  0.00  0.00    +0.047 A 
ATOM     13  C   UNL     1     -30.162 -12.508  14.254  0.00  0.00    +0.027 A 
ATOM     14  C   UNL     1     -29.714 -12.637  15.577  0.00  0.00    +0.034 A 
ATOM     15  C   UNL     1     -28.698 -13.564  15.868  0.00  0.00    +0.027 A 
ATOM     16  C   UNL     1     -28.173 -14.378  14.858  0.00  0.00    +0.047 A 
BRANCH  11  18
ATOM     17  C   UNL     1     -26.821 -15.009  11.998  0.00  0.00    +0.277 C 
ATOM     18  O   UNL     1     -28.155 -15.062  12.493  0.00  0.00    -0.495 OA
ENDBRANCH  11  18
ENDBRANCH   7  14
ENDBRANCH   1   8
BRANCH   4  19
ATOM     19  N   UNL     1     -31.819  -7.518  21.404  0.00  0.00    -0.216 N 
ATOM     20  H   UNL     1     -31.335  -7.320  22.308  0.00  0.00    +0.174 HD
BRANCH  19  21
ATOM     21  S   UNL     1     -33.260  -6.609  21.072  0.00  0.00    +0.072 S 
ATOM     22  O   UNL     1     -34.325  -6.993  22.062  0.00  0.00    -0.150 OA
ATOM     23  O   UNL     1     -32.968  -5.142  21.217  0.00  0.00    -0.150 OA
BRANCH  21  24
ATOM     24  C   UNL     1     -33.792  -6.918  19.422  0.00  0.00    +0.112 A 
ATOM     25  C   UNL     1     -34.206  -8.208  19.056  0.00  0.00    +0.032 A 
ATOM     26  C   UNL     1     -34.640  -8.466  17.751  0.00  0.00    +0.051 A 
ATOM     27  C   UNL     1     -34.660  -7.436  16.808  0.00  0.00    +0.162 A 
ATOM     28  O   UNL     1     -35.062  -7.677  15.490  0.00  0.00    -0.485 OA
ATOM     29  C   UNL     1     -34.834  -6.712  14.461  0.00  0.00    +0.270 C 
ATOM     30  C   UNL     1     -35.062  -5.294  15.002  0.00  0.00    +0.270 C 
ATOM     31  O   UNL     1     -34.353  -5.113  16.230  0.00  0.00    -0.485 OA
ATOM     32  C   UNL     1     -34.276  -6.139  17.177  0.00  0.00    +0.164 A 
ATOM     33  C   UNL     1     -33.824  -5.882  18.474  0.00  0.00    +0.078 A 
ENDBRANCH  21  24
ENDBRANCH  19  21
ENDBRANCH   4  19
TORSDOF 6
ENDMDL
MODEL 3
REMARK VINA RESULT:     1.270      3.392      8.902
REMARK INTER + INTRA:           6.194
REMARK INTER:                   6.096
REMARK INTRA:                   0.098
REMARK UNBOUND:                 4.479
REMARK  Name = 
REMARK  7 active torsions:
REMARK  status: ('A' for Active; 'I' for Inactive)
REMARK    1  A    between atoms: C_1  and  O_2
REMARK    2  A    between atoms: O_2  and  C_3
REMARK    3  A    between atoms: C_6  and  N_9
REMARK    4  A    between atoms: C_10  and  C_12
REMARK    5  A    between atoms: C_15  and  N_18
REMARK    6  A    between atoms: N_18  and  S_19
REMARK    7  A    between atoms: S_19  and  C_22
REMARK                            x       y       z     vdW  Elec       q    Type
REMARK                         _______ _______ _______ _____ _____    ______ ____
ROOT
ATOM      1  C   UNL     1     -29.811 -12.137  17.701  0.00  0.00    +0.037 A 
ATOM      2  C   UNL     1     -30.371 -13.168  16.927  0.00  0.00    +0.015 A 
ATOM      3  C   UNL     1     -29.614 -13.805  15.940  0.00  0.00    +0.025 A 
ATOM      4  C   UNL     1     -28.288 -13.423  15.695  0.00  0.00    +0.048 A 
ATOM      5  C   UNL     1     -27.727 -12.388  16.466  0.00  0.00    +0.025 A 
ATOM      6  C   UNL     1     -28.483 -11.749  17.451  0.00  0.00    +0.015 A 
ENDROOT
BRANCH   1   8
ATOM      7  N   UNL     1     -31.420 -10.301  18.427  0.00  0.00    -0.281 N 
ATOM      8  C   UNL     1     -30.595 -11.439  18.748  0.00  0.00    +0.248 C 
ATOM      9  O   UNL     1     -30.528 -11.854  19.937  0.00  0.00    -0.270 OA
ATOM     10  H   UNL     1     -31.367  -9.886  17.472  0.00  0.00    +0.155 HD
BRANCH   7  14
ATOM     11  C   UNL     1     -33.965  -8.283  21.181  0.00  0.00    +0.120 A 
ATOM     12  C   UNL     1     -33.306  -7.581  20.164  0.00  0.00    +0.047 A 
ATOM     13  C   UNL     1     -32.472  -8.251  19.265  0.00  0.00    +0.027 A 
ATOM     14  C   UNL     1     -32.269  -9.634  19.378  0.00  0.00    +0.034 A 
ATOM     15  C   UNL     1     -32.950 -10.346  20.381  0.00  0.00    +0.027 A 
ATOM     16  C   UNL     1     -33.785  -9.675  21.281  0.00  0.00    +0.047 A 
BRANCH  11  18
ATOM     17  C   UNL     1     -35.041  -6.167  21.964  0.00  0.00    +0.277 C 
ATOM     18  O   UNL     1     -34.785  -7.565  22.062  0.00  0.00    -0.495 OA
ENDBRANCH  11  18
ENDBRANCH   7  14
ENDBRANCH   1   8
BRANCH   4  19
ATOM     19  N   UNL     1     -27.541 -14.097  14.666  0.00  0.00    -0.216 N 
ATOM     20  H   UNL     1     -26.823 -14.803  14.940  0.00  0.00    +0.174 HD
BRANCH  19  21
ATOM     21  S   UNL     1     -27.843 -13.905  12.968  0.00  0.00    +0.072 S 
ATOM     22  O   UNL     1     -27.197 -12.632  12.493  0.00  0.00    -0.150 OA
ATOM     23  O   UNL     1     -27.242 -15.062  12.221  0.00  0.00    -0.150 OA
BRANCH  21  24
ATOM     24  C   UNL     1     -29.578 -13.881  12.669  0.00  0.00    +0.112 A 
ATOM     25  C   UNL     1     -30.214 -15.030  12.174  0.00  0.00    +0.032 A 
ATOM     26  C   UNL     1     -31.593 -15.028  11.941  0.00  0.00    +0.051 A 
ATOM     27  C   UNL     1     -32.341 -13.877  12.200  0.00  0.00    +0.162 A 
ATOM     28  O   UNL     1     -33.716 -13.842  11.947  0.00  0.00    -0.485 OA
ATOM     29  C   UNL     1     -34.436 -12.607  11.951  0.00  0.00    +0.270 C 
ATOM     30  C   UNL     1     -33.919 -11.695  13.071  0.00  0.00    +0.270 C 
ATOM     31  O   UNL     1     -32.493 -11.613  13.023  0.00  0.00    -0.485 OA
ATOM     32  C   UNL     1     -31.715 -12.737  12.723  0.00  0.00    +0.164 A 
ATOM     33  C   UNL     1     -30.335 -12.729  12.939  0.00  0.00    +0.078 A 
ENDBRANCH  21  24
ENDBRANCH  19  21
ENDBRANCH   4  19
TORSDOF 6
ENDMDL
