MODEL 1
REMARK VINA RESULT:    -5.234      0.000      0.000
REMARK INTER + INTRA:          -7.900
REMARK INTER:                  -7.223
REMARK INTRA:                  -0.677
REMARK UNBOUND:                -0.677
REMARK  Name = 
REMARK  7 active torsions:
REMARK  status: ('A' for Active; 'I' for Inactive)
REMARK    1  A    between atoms: C_2  and  C_4
REMARK    2  A    between atoms: C_8  and  C_10
REMARK    3  A    between atoms: N_12  and  CA_13
REMARK    4  A    between atoms: CA_13  and  CB_14
REMARK    5  A    between atoms: CA_13  and  C_21
REMARK    6  A    between atoms: CB_14  and  CG_15
REMARK    7  A    between atoms: C_21  and  OXT_23
REMARK                            x       y       z     vdW  Elec       q    Type
REMARK                         _______ _______ _______ _____ _____    ______ ____
ROOT
ATOM      1  C   UNK A   0     -32.404 -12.329  16.218  0.00  0.00    +0.245 C 
ATOM      2  O   UNK A   0     -32.961 -13.166  16.981  0.00  0.00    -0.270 OA
ATOM      3  N   PHE A   1     -30.971 -12.235  16.192  0.00  0.00    -0.298 N 
ATOM      4  H   PHE A   1     -30.524 -11.442  15.681  0.00  0.00    +0.150 HD
ENDROOT
BRANCH   1   9
ATOM      5  C   UNK A   0     -34.292  -9.269  14.955  0.00  0.00    +0.037 A 
ATOM      6  C   UNK A   0     -34.822  -9.775  13.756  0.00  0.00    +0.013 A 
ATOM      7  C   UNK A   0     -34.570 -11.093  13.371  0.00  0.00    +0.001 A 
ATOM      8  C   UNK A   0     -33.786 -11.922  14.175  0.00  0.00    +0.013 A 
ATOM      9  C   UNK A   0     -33.246 -11.442  15.379  0.00  0.00    +0.037 A 
ATOM     10  C   UNK A   0     -33.491 -10.107  15.755  0.00  0.00    +0.026 A 
BRANCH   5  12
ATOM     11  N   UNK A   0     -34.298  -7.393  16.670  0.00  0.00    -0.325 N 
ATOM     12  C   UNK A   0     -34.558  -7.862  15.344  0.00  0.00    +0.242 C 
ATOM     13  O   UNK A   0     -35.037  -7.060  14.498  0.00  0.00    -0.270 OA
ATOM     14  H   UNK A   0     -34.439  -6.385  16.902  0.00  0.00    +0.145 HD
ATOM     15  H   UNK A   0     -34.055  -8.045  17.447  0.00  0.00    +0.145 HD
ENDBRANCH   5  12
ENDBRANCH   1   9
BRANCH   3  16
ATOM     16  CA  PHE A   1     -30.117 -13.209  16.883  0.00  0.00    +0.186 C 
BRANCH  16  17
ATOM     17  C   PHE A   1     -30.485 -13.262  18.337  0.00  0.00    +0.326 C 
ATOM     18  O   PHE A   1     -30.218 -12.291  19.096  0.00  0.00    -0.249 OA
BRANCH  17  19
ATOM     19  OXT PHE A   1     -31.145 -14.377  18.843  0.00  0.00    -0.479 OA
ATOM     20  HXT PHE A   1     -31.664 -14.324  19.711  0.00  0.00    +0.295 HD
ENDBRANCH  17  19
ENDBRANCH  16  17
BRANCH  16  21
ATOM     21  CB  PHE A   1     -30.252 -14.610  16.257  0.00  0.00    +0.069 C 
BRANCH  21  22
ATOM     22  CG  PHE A   1     -29.693 -14.646  14.856  0.00  0.00    -0.045 A 
ATOM     23  CD1 PHE A   1     -30.531 -14.446  13.746  0.00  0.00    +0.004 A 
ATOM     24  CE1 PHE A   1     -30.002 -14.452  12.452  0.00  0.00    +0.000 A 
ATOM     25  CZ  PHE A   1     -28.633 -14.656  12.256  0.00  0.00    +0.000 A 
ATOM     26  CE2 PHE A   1     -27.791 -14.852  13.355  0.00  0.00    +0.000 A 
ATOM     27  CD2 PHE A   1     -28.317 -14.845  14.651  0.00  0.00    +0.004 A 
ENDBRANCH  21  22
ENDBRANCH  16  21
ENDBRANCH   3  16
TORSDOF 7
ENDMDL
MODEL 2
REMARK VINA RESULT:    -5.166      3.004      4.342
REMARK INTER + INTRA:          -7.806
REMARK INTER:                  -6.827
REMARK INTRA:                  -0.979
REMARK UNBOUND:                -0.677
REMARK  Name = 
REMARK  7 active torsions:
REMARK  status: ('A' for Active; 'I' for Inactive)
REMARK    1  A    between atoms: C_2  and  C_4
REMARK    2  A    between atoms: C_8  and  C_10
REMARK    3  A    between atoms: N_12  and  CA_13
REMARK    4  A    between atoms: CA_13  and  CB_14
REMARK    5  A    between atoms: CA_13  and  C_21
REMARK    6  A    between atoms: CB_14  and  CG_15
REMARK    7  A    between atoms: C_21  and  OXT_23
REMARK                            x       y       z     vdW  Elec       q    Type
REMARK                         _______ _______ _______ _____ _____    ______ ____
ROOT
ATOM      1  C   UNK A   0     -31.201  -9.812  16.690  0.00  0.00    +0.245 C 
ATOM      2  O   UNK A   0     -30.113  -9.423  16.184  0.00  0.00    -0.270 OA
ATOM      3  N   PHE A   1     -31.260 -10.129  18.090  0.00  0.00    -0.298 N 
ATOM      4  H   PHE A   1     -32.113 -10.595  18.470  0.00  0.00    +0.150 HD
ENDROOT
BRANCH   1   9
ATOM      5  C   UNK A   0     -33.600 -11.099  14.022  0.00  0.00    +0.037 A 
ATOM      6  C   UNK A   0     -34.681 -10.221  14.209  0.00  0.00    +0.013 A 
ATOM      7  C   UNK A   0     -34.625  -9.225  15.186  0.00  0.00    +0.001 A 
ATOM      8  C   UNK A   0     -33.491  -9.093  15.988  0.00  0.00    +0.013 A 
ATOM      9  C   UNK A   0     -32.395  -9.956  15.822  0.00  0.00    +0.037 A 
ATOM     10  C   UNK A   0     -32.464 -10.968  14.845  0.00  0.00    +0.026 A 
BRANCH   5  12
ATOM     11  N   UNK A   0     -34.647 -12.107  11.938  0.00  0.00    -0.325 N 
ATOM     12  C   UNK A   0     -33.680 -12.161  12.990  0.00  0.00    +0.242 C 
ATOM     13  O   UNK A   0     -32.891 -13.143  13.042  0.00  0.00    -0.270 OA
ATOM     14  H   UNK A   0     -34.645 -12.837  11.191  0.00  0.00    +0.145 HD
ATOM     15  H   UNK A   0     -35.421 -11.408  11.937  0.00  0.00    +0.145 HD
ENDBRANCH   5  12
ENDBRANCH   1   9
BRANCH   3  16
ATOM     16  CA  PHE A   1     -30.144  -9.837  18.999  0.00  0.00    +0.186 C 
BRANCH  16  17
ATOM     17  C   PHE A   1     -30.621  -8.960  20.120  0.00  0.00    +0.326 C 
ATOM     18  O   PHE A   1     -31.673  -9.250  20.752  0.00  0.00    -0.249 OA
BRANCH  17  19
ATOM     19  OXT PHE A   1     -29.884  -7.836  20.480  0.00  0.00    -0.479 OA
ATOM     20  HXT PHE A   1     -28.929  -7.923  20.805  0.00  0.00    +0.295 HD
ENDBRANCH  17  19
ENDBRANCH  16  17
BRANCH  16  21
ATOM     21  CB  PHE A   1     -29.538 -11.133  19.570  0.00  0.00    +0.069 C 
BRANCH  21  22
ATOM     22  CG  PHE A   1     -29.757 -12.301  18.641  0.00  0.00    -0.045 A 
ATOM     23  CD1 PHE A   1     -30.905 -13.103  18.757  0.00  0.00    +0.004 A 
ATOM     24  CE1 PHE A   1     -31.115 -14.167  17.875  0.00  0.00    +0.000 A 
ATOM     25  CZ  PHE A   1     -30.183 -14.438  16.870  0.00  0.00    +0.000 A 
ATOM     26  CE2 PHE A   1     -29.040 -13.643  16.744  0.00  0.00    +0.000 A 
ATOM     27  CD2 PHE A   1     -28.827 -12.578  17.624  0.00  0.00    +0.004 A 
ENDBRANCH  21  22
ENDBRANCH  16  21
ENDBRANCH   3  16
TORSDOF 7
ENDMDL
MODEL 3
REMARK VINA RESULT:    -5.148      3.704      5.328
REMARK INTER + INTRA:          -7.781
REMARK INTER:                  -6.930
REMARK INTRA:                  -0.851
REMARK UNBOUND:                -0.677
REMARK  Name = 
REMARK  7 active torsions:
REMARK  status: ('A' for Active; 'I' for Inactive)
REMARK    1  A    between atoms: C_2  and  C_4
REMARK    2  A    between atoms: C_8  and  C_10
REMARK    3  A    between atoms: N_12  and  CA_13
REMARK    4  A    between atoms: CA_13  and  CB_14
REMARK    5  A    between atoms: CA_13  and  C_21
REMARK    6  A    between atoms: CB_14  and  CG_15
REMARK    7  A    between atoms: C_21  and  OXT_23
REMARK                            x       y       z     vdW  Elec       q    Type
REMARK                         _______ _______ _______ _____ _____    ______ ____
ROOT
ATOM      1  C   UNK A   0     -31.402  -9.809  16.828  0.00  0.00    +0.245 C 
ATOM      2  O   UNK A   0     -30.246  -9.523  16.414  0.00  0.00    -0.270 OA
ATOM      3  N   PHE A   1     -31.631  -9.973  18.237  0.00  0.00    -0.298 N 
ATOM      4  H   PHE A   1     -32.545 -10.360  18.561  0.00  0.00    +0.150 HD
ENDROOT
BRANCH   1   9
ATOM      5  C   UNK A   0     -33.535 -11.244  14.014  0.00  0.00    +0.037 A 
ATOM      6  C   UNK A   0     -34.605 -10.333  14.018  0.00  0.00    +0.013 A 
ATOM      7  C   UNK A   0     -34.626  -9.268  14.921  0.00  0.00    +0.001 A 
ATOM      8  C   UNK A   0     -33.582  -9.099  15.830  0.00  0.00    +0.013 A 
ATOM      9  C   UNK A   0     -32.499  -9.993  15.848  0.00  0.00    +0.037 A 
ATOM     10  C   UNK A   0     -32.491 -11.074  14.945  0.00  0.00    +0.026 A 
BRANCH   5  12
ATOM     11  N   UNK A   0     -34.735 -12.818  12.420  0.00  0.00    -0.325 N 
ATOM     12  C   UNK A   0     -33.534 -12.378  13.059  0.00  0.00    +0.242 C 
ATOM     13  O   UNK A   0     -32.456 -12.983  12.810  0.00  0.00    -0.270 OA
ATOM     14  H   UNK A   0     -34.697 -13.580  11.708  0.00  0.00    +0.145 HD
ATOM     15  H   UNK A   0     -35.673 -12.461  12.707  0.00  0.00    +0.145 HD
ENDBRANCH   5  12
ENDBRANCH   1   9
BRANCH   3  16
ATOM     16  CA  PHE A   1     -30.608  -9.634  19.234  0.00  0.00    +0.186 C 
BRANCH  16  17
ATOM     17  C   PHE A   1     -30.884  -8.271  19.799  0.00  0.00    +0.326 C 
ATOM     18  O   PHE A   1     -32.014  -7.733  19.639  0.00  0.00    -0.249 OA
BRANCH  17  19
ATOM     19  OXT PHE A   1     -29.899  -7.611  20.525  0.00  0.00    -0.479 OA
ATOM     20  HXT PHE A   1     -29.493  -8.031  21.353  0.00  0.00    +0.295 HD
ENDBRANCH  17  19
ENDBRANCH  16  17
BRANCH  16  21
ATOM     21  CB  PHE A   1     -30.571 -10.675  20.370  0.00  0.00    +0.069 C 
BRANCH  21  22
ATOM     22  CG  PHE A   1     -29.365 -11.573  20.257  0.00  0.00    -0.045 A 
ATOM     23  CD1 PHE A   1     -29.114 -12.560  21.225  0.00  0.00    +0.004 A 
ATOM     24  CE1 PHE A   1     -28.009 -13.406  21.100  0.00  0.00    +0.000 A 
ATOM     25  CZ  PHE A   1     -27.147 -13.276  20.007  0.00  0.00    +0.000 A 
ATOM     26  CE2 PHE A   1     -27.391 -12.300  19.037  0.00  0.00    +0.000 A 
ATOM     27  CD2 PHE A   1     -28.496 -11.452  19.158  0.00  0.00    +0.004 A 
ENDBRANCH  21  22
ENDBRANCH  16  21
ENDBRANCH   3  16
TORSDOF 7
ENDMDL
MODEL 4
REMARK VINA RESULT:    -5.040      2.712      6.601
REMARK INTER + INTRA:          -7.633
REMARK INTER:                  -6.784
REMARK INTRA:                  -0.848
REMARK UNBOUND:                -0.677
REMARK  Name = 
REMARK  7 active torsions:
REMARK  status: ('A' for Active; 'I' for Inactive)
REMARK    1  A    between atoms: C_2  and  C_4
REMARK    2  A    between atoms: C_8  and  C_10
REMARK    3  A    between atoms: N_12  and  CA_13
REMARK    4  A    between atoms: CA_13  and  CB_14
REMARK    5  A    between atoms: CA_13  and  C_21
REMARK    6  A    between atoms: CB_14  and  CG_15
REMARK    7  A    between atoms: C_21  and  OXT_23
REMARK                            x       y       z     vdW  Elec       q    Type
REMARK                         _______ _______ _______ _____ _____    ______ ____
ROOT
ATOM      1  C   UNK A   0     -32.087 -12.079  18.374  0.00  0.00    +0.245 C 
ATOM      2  O   UNK A   0     -32.729 -13.136  18.125  0.00  0.00    -0.270 OA
ATOM      3  N   PHE A   1     -32.360 -10.888  17.618  0.00  0.00    -0.298 N 
ATOM      4  H   PHE A   1     -31.725 -10.066  17.719  0.00  0.00    +0.150 HD
ENDROOT
BRANCH   1   9
ATOM      5  C   UNK A   0     -28.874 -12.852  20.272  0.00  0.00    +0.037 A 
ATOM      6  C   UNK A   0     -29.074 -12.084  21.432  0.00  0.00    +0.013 A 
ATOM      7  C   UNK A   0     -30.239 -11.332  21.591  0.00  0.00    +0.001 A 
ATOM      8  C   UNK A   0     -31.218 -11.335  20.597  0.00  0.00    +0.013 A 
ATOM      9  C   UNK A   0     -31.044 -12.094  19.428  0.00  0.00    +0.037 A 
ATOM     10  C   UNK A   0     -29.860 -12.839  19.267  0.00  0.00    +0.026 A 
BRANCH   5  12
ATOM     11  N   UNK A   0     -27.513 -14.973  20.603  0.00  0.00    -0.325 N 
ATOM     12  C   UNK A   0     -27.624 -13.635  20.111  0.00  0.00    +0.242 C 
ATOM     13  O   UNK A   0     -26.629 -13.111  19.542  0.00  0.00    -0.270 OA
ATOM     14  H   UNK A   0     -26.643 -15.522  20.426  0.00  0.00    +0.145 HD
ATOM     15  H   UNK A   0     -28.243 -15.396  21.217  0.00  0.00    +0.145 HD
ENDBRANCH   5  12
ENDBRANCH   1   9
BRANCH   3  16
ATOM     16  CA  PHE A   1     -33.494 -10.801  16.691  0.00  0.00    +0.186 C 
BRANCH  16  17
ATOM     17  C   PHE A   1     -34.559  -9.918  17.274  0.00  0.00    +0.326 C 
ATOM     18  O   PHE A   1     -35.015  -8.948  16.609  0.00  0.00    -0.249 OA
BRANCH  17  19
ATOM     19  OXT PHE A   1     -35.062 -10.187  18.542  0.00  0.00    -0.479 OA
ATOM     20  HXT PHE A   1     -35.633 -11.006  18.713  0.00  0.00    +0.295 HD
ENDBRANCH  17  19
ENDBRANCH  16  17
BRANCH  16  21
ATOM     21  CB  PHE A   1     -33.052 -10.253  15.320  0.00  0.00    +0.069 C 
BRANCH  21  22
ATOM     22  CG  PHE A   1     -33.083 -11.326  14.260  0.00  0.00    -0.045 A 
ATOM     23  CD1 PHE A   1     -34.169 -11.425  13.374  0.00  0.00    +0.004 A 
ATOM     24  CE1 PHE A   1     -34.177 -12.405  12.377  0.00  0.00    +0.000 A 
ATOM     25  CZ  PHE A   1     -33.103 -13.290  12.255  0.00  0.00    +0.000 A 
ATOM     26  CE2 PHE A   1     -32.017 -13.196  13.129  0.00  0.00    +0.000 A 
ATOM     27  CD2 PHE A   1     -32.004 -12.217  14.128  0.00  0.00    +0.004 A 
ENDBRANCH  21  22
ENDBRANCH  16  21
ENDBRANCH   3  16
TORSDOF 7
ENDMDL
MODEL 5
REMARK VINA RESULT:    -5.000      3.486      4.136
REMARK INTER + INTRA:          -7.578
REMARK INTER:                  -6.810
REMARK INTRA:                  -0.768
REMARK UNBOUND:                -0.677
REMARK  Name = 
REMARK  7 active torsions:
REMARK  status: ('A' for Active; 'I' for Inactive)
REMARK    1  A    between atoms: C_2  and  C_4
REMARK    2  A    between atoms: C_8  and  C_10
REMARK    3  A    between atoms: N_12  and  CA_13
REMARK    4  A    between atoms: CA_13  and  CB_14
REMARK    5  A    between atoms: CA_13  and  C_21
REMARK    6  A    between atoms: CB_14  and  CG_15
REMARK    7  A    between atoms: C_21  and  OXT_23
REMARK                            x       y       z     vdW  Elec       q    Type
REMARK                         _______ _______ _______ _____ _____    ______ ____
ROOT
ATOM      1  C   UNK A   0     -30.369 -10.462  17.650  0.00  0.00    +0.245 C 
ATOM      2  O   UNK A   0     -29.546 -10.062  16.782  0.00  0.00    -0.270 OA
ATOM      3  N   PHE A   1     -30.463 -11.865  17.947  0.00  0.00    -0.298 N 
ATOM      4  H   PHE A   1     -31.248 -12.205  18.546  0.00  0.00    +0.150 HD
ENDROOT
BRANCH   1   9
ATOM      5  C   UNK A   0     -31.614  -7.816  20.094  0.00  0.00    +0.037 A 
ATOM      6  C   UNK A   0     -32.906  -7.591  19.588  0.00  0.00    +0.013 A 
ATOM      7  C   UNK A   0     -33.361  -8.294  18.471  0.00  0.00    +0.001 A 
ATOM      8  C   UNK A   0     -32.535  -9.229  17.845  0.00  0.00    +0.013 A 
ATOM      9  C   UNK A   0     -31.240  -9.475  18.332  0.00  0.00    +0.037 A 
ATOM     10  C   UNK A   0     -30.782  -8.751  19.450  0.00  0.00    +0.026 A 
BRANCH   5  12
ATOM     11  N   UNK A   0     -29.745  -6.896  21.550  0.00  0.00    -0.325 N 
ATOM     12  C   UNK A   0     -31.140  -7.051  21.273  0.00  0.00    +0.242 C 
ATOM     13  O   UNK A   0     -31.978  -6.537  22.062  0.00  0.00    -0.270 OA
ATOM     14  H   UNK A   0     -29.437  -6.305  22.354  0.00  0.00    +0.145 HD
ATOM     15  H   UNK A   0     -29.018  -7.430  21.027  0.00  0.00    +0.145 HD
ENDBRANCH   5  12
ENDBRANCH   1   9
BRANCH   3  16
ATOM     16  CA  PHE A   1     -29.503 -12.837  17.412  0.00  0.00    +0.186 C 
BRANCH  16  17
ATOM     17  C   PHE A   1     -28.530 -13.231  18.485  0.00  0.00    +0.326 C 
ATOM     18  O   PHE A   1     -27.392 -12.689  18.541  0.00  0.00    -0.249 OA
BRANCH  17  19
ATOM     19  OXT PHE A   1     -28.895 -14.177  19.436  0.00  0.00    -0.479 OA
ATOM     20  HXT PHE A   1     -29.249 -15.085  19.157  0.00  0.00    +0.295 HD
ENDBRANCH  17  19
ENDBRANCH  16  17
BRANCH  16  21
ATOM     21  CB  PHE A   1     -30.221 -14.089  16.871  0.00  0.00    +0.069 C 
BRANCH  21  22
ATOM     22  CG  PHE A   1     -30.032 -14.233  15.381  0.00  0.00    -0.045 A 
ATOM     23  CD1 PHE A   1     -31.007 -13.761  14.487  0.00  0.00    +0.004 A 
ATOM     24  CE1 PHE A   1     -30.812 -13.874  13.107  0.00  0.00    +0.000 A 
ATOM     25  CZ  PHE A   1     -29.643 -14.456  12.610  0.00  0.00    +0.000 A 
ATOM     26  CE2 PHE A   1     -28.666 -14.924  13.492  0.00  0.00    +0.000 A 
ATOM     27  CD2 PHE A   1     -28.856 -14.813  14.873  0.00  0.00    +0.004 A 
ENDBRANCH  21  22
ENDBRANCH  16  21
ENDBRANCH   3  16
TORSDOF 7
ENDMDL
MODEL 6
REMARK VINA RESULT:    -4.954      3.137      5.308
REMARK INTER + INTRA:          -7.514
REMARK INTER:                  -6.493
REMARK INTRA:                  -1.021
REMARK UNBOUND:                -0.677
REMARK  Name = 
REMARK  7 active torsions:
REMARK  status: ('A' for Active; 'I' for Inactive)
REMARK    1  A    between atoms: C_2  and  C_4
REMARK    2  A    between atoms: C_8  and  C_10
REMARK    3  A    between atoms: N_12  and  CA_13
REMARK    4  A    between atoms: CA_13  and  CB_14
REMARK    5  A    between atoms: CA_13  and  C_21
REMARK    6  A    between atoms: CB_14  and  CG_15
REMARK    7  A    between atoms: C_21  and  OXT_23
REMARK                            x       y       z     vdW  Elec       q    Type
REMARK                         _______ _______ _______ _____ _____    ______ ____
ROOT
ATOM      1  C   UNK A   0     -31.001 -10.023  16.557  0.00  0.00    +0.245 C 
ATOM      2  O   UNK A   0     -30.178  -9.149  16.170  0.00  0.00    -0.270 OA
ATOM      3  N   PHE A   1     -31.466 -10.009  17.916  0.00  0.00    -0.298 N 
ATOM      4  H   PHE A   1     -32.021 -10.819  18.271  0.00  0.00    +0.150 HD
ENDROOT
BRANCH   1   9
ATOM      5  C   UNK A   0     -33.013 -11.851  13.885  0.00  0.00    +0.037 A 
ATOM      6  C   UNK A   0     -32.276 -13.044  13.785  0.00  0.00    +0.013 A 
ATOM      7  C   UNK A   0     -31.146 -13.247  14.580  0.00  0.00    +0.001 A 
ATOM      8  C   UNK A   0     -30.736 -12.265  15.482  0.00  0.00    +0.013 A 
ATOM      9  C   UNK A   0     -31.455 -11.064  15.603  0.00  0.00    +0.037 A 
ATOM     10  C   UNK A   0     -32.585 -10.859  14.788  0.00  0.00    +0.026 A 
BRANCH   5  12
ATOM     11  N   UNK A   0     -34.773 -12.715  12.269  0.00  0.00    -0.325 N 
ATOM     12  C   UNK A   0     -34.203 -11.644  13.025  0.00  0.00    +0.242 C 
ATOM     13  O   UNK A   0     -34.720 -10.497  12.941  0.00  0.00    -0.270 OA
ATOM     14  H   UNK A   0     -35.645 -12.556  11.717  0.00  0.00    +0.145 HD
ATOM     15  H   UNK A   0     -34.296 -13.638  12.176  0.00  0.00    +0.145 HD
ENDBRANCH   5  12
ENDBRANCH   1   9
BRANCH   3  16
ATOM     16  CA  PHE A   1     -31.164  -8.899  18.828  0.00  0.00    +0.186 C 
BRANCH  16  17
ATOM     17  C   PHE A   1     -32.416  -8.121  19.111  0.00  0.00    +0.326 C 
ATOM     18  O   PHE A   1     -32.852  -8.025  20.290  0.00  0.00    -0.249 OA
BRANCH  17  19
ATOM     19  OXT PHE A   1     -33.084  -7.483  18.071  0.00  0.00    -0.479 OA
ATOM     20  HXT PHE A   1     -32.585  -7.173  17.245  0.00  0.00    +0.295 HD
ENDBRANCH  17  19
ENDBRANCH  16  17
BRANCH  16  21
ATOM     21  CB  PHE A   1     -30.557  -9.412  20.148  0.00  0.00    +0.069 C 
BRANCH  21  22
ATOM     22  CG  PHE A   1     -29.973 -10.794  19.987  0.00  0.00    -0.045 A 
ATOM     23  CD1 PHE A   1     -30.650 -11.920  20.484  0.00  0.00    +0.004 A 
ATOM     24  CE1 PHE A   1     -30.116 -13.199  20.307  0.00  0.00    +0.000 A 
ATOM     25  CZ  PHE A   1     -28.904 -13.365  19.631  0.00  0.00    +0.000 A 
ATOM     26  CE2 PHE A   1     -28.225 -12.251  19.129  0.00  0.00    +0.000 A 
ATOM     27  CD2 PHE A   1     -28.757 -10.970  19.304  0.00  0.00    +0.004 A 
ENDBRANCH  21  22
ENDBRANCH  16  21
ENDBRANCH   3  16
TORSDOF 7
ENDMDL
MODEL 7
REMARK VINA RESULT:    -4.871      1.969      2.558
REMARK INTER + INTRA:          -7.400
REMARK INTER:                  -6.516
REMARK INTRA:                  -0.883
REMARK UNBOUND:                -0.677
REMARK  Name = 
REMARK  7 active torsions:
REMARK  status: ('A' for Active; 'I' for Inactive)
REMARK    1  A    between atoms: C_2  and  C_4
REMARK    2  A    between atoms: C_8  and  C_10
REMARK    3  A    between atoms: N_12  and  CA_13
REMARK    4  A    between atoms: CA_13  and  CB_14
REMARK    5  A    between atoms: CA_13  and  C_21
REMARK    6  A    between atoms: CB_14  and  CG_15
REMARK    7  A    between atoms: C_21  and  OXT_23
REMARK                            x       y       z     vdW  Elec       q    Type
REMARK                         _______ _______ _______ _____ _____    ______ ____
ROOT
ATOM      1  C   UNK A   0     -31.656 -10.633  16.766  0.00  0.00    +0.245 C 
ATOM      2  O   UNK A   0     -30.556 -10.302  16.244  0.00  0.00    -0.270 OA
ATOM      3  N   PHE A   1     -31.786 -11.918  17.395  0.00  0.00    -0.298 N 
ATOM      4  H   PHE A   1     -32.733 -12.248  17.684  0.00  0.00    +0.150 HD
ENDROOT
BRANCH   1   9
ATOM      5  C   UNK A   0     -34.274  -8.044  17.752  0.00  0.00    +0.037 A 
ATOM      6  C   UNK A   0     -34.961  -7.902  16.535  0.00  0.00    +0.013 A 
ATOM      7  C   UNK A   0     -34.578  -8.642  15.415  0.00  0.00    +0.001 A 
ATOM      8  C   UNK A   0     -33.505  -9.531  15.494  0.00  0.00    +0.013 A 
ATOM      9  C   UNK A   0     -32.802  -9.694  16.699  0.00  0.00    +0.037 A 
ATOM     10  C   UNK A   0     -33.184  -8.933  17.821  0.00  0.00    +0.026 A 
BRANCH   5  12
ATOM     11  N   UNK A   0     -35.062  -7.862  20.161  0.00  0.00    -0.325 N 
ATOM     12  C   UNK A   0     -34.684  -7.241  18.930  0.00  0.00    +0.242 C 
ATOM     13  O   UNK A   0     -34.716  -5.984  18.847  0.00  0.00    -0.270 OA
ATOM     14  H   UNK A   0     -35.291  -7.273  20.993  0.00  0.00    +0.145 HD
ATOM     15  H   UNK A   0     -35.206  -8.892  20.237  0.00  0.00    +0.145 HD
ENDBRANCH   5  12
ENDBRANCH   1   9
BRANCH   3  16
ATOM     16  CA  PHE A   1     -30.628 -12.791  17.620  0.00  0.00    +0.186 C 
BRANCH  16  17
ATOM     17  C   PHE A   1     -30.387 -12.942  19.094  0.00  0.00    +0.326 C 
ATOM     18  O   PHE A   1     -29.683 -12.097  19.713  0.00  0.00    -0.249 OA
BRANCH  17  19
ATOM     19  OXT PHE A   1     -30.963 -14.002  19.785  0.00  0.00    -0.479 OA
ATOM     20  HXT PHE A   1     -30.465 -14.876  19.906  0.00  0.00    +0.295 HD
ENDBRANCH  17  19
ENDBRANCH  16  17
BRANCH  16  21
ATOM     21  CB  PHE A   1     -30.843 -14.177  16.981  0.00  0.00    +0.069 C 
BRANCH  21  22
ATOM     22  CG  PHE A   1     -30.349 -14.210  15.556  0.00  0.00    -0.045 A 
ATOM     23  CD1 PHE A   1     -29.060 -14.683  15.257  0.00  0.00    +0.004 A 
ATOM     24  CE1 PHE A   1     -28.619 -14.737  13.931  0.00  0.00    +0.000 A 
ATOM     25  CZ  PHE A   1     -29.461 -14.322  12.895  0.00  0.00    +0.000 A 
ATOM     26  CE2 PHE A   1     -30.746 -13.854  13.184  0.00  0.00    +0.000 A 
ATOM     27  CD2 PHE A   1     -31.191 -13.800  14.508  0.00  0.00    +0.004 A 
ENDBRANCH  21  22
ENDBRANCH  16  21
ENDBRANCH   3  16
TORSDOF 7
ENDMDL
MODEL 8
REMARK VINA RESULT:    -4.870      2.625      5.397
REMARK INTER + INTRA:          -7.397
REMARK INTER:                  -6.807
REMARK INTRA:                  -0.590
REMARK UNBOUND:                -0.677
REMARK  Name = 
REMARK  7 active torsions:
REMARK  status: ('A' for Active; 'I' for Inactive)
REMARK    1  A    between atoms: C_2  and  C_4
REMARK    2  A    between atoms: C_8  and  C_10
REMARK    3  A    between atoms: N_12  and  CA_13
REMARK    4  A    between atoms: CA_13  and  CB_14
REMARK    5  A    between atoms: CA_13  and  C_21
REMARK    6  A    between atoms: CB_14  and  CG_15
REMARK    7  A    between atoms: C_21  and  OXT_23
REMARK                            x       y       z     vdW  Elec       q    Type
REMARK                         _______ _______ _______ _____ _____    ______ ____
ROOT
ATOM      1  C   UNK A   0     -29.369 -13.509  16.402  0.00  0.00    +0.245 C 
ATOM      2  O   UNK A   0     -28.387 -14.227  16.069  0.00  0.00    -0.270 OA
ATOM      3  N   PHE A   1     -29.420 -12.944  17.722  0.00  0.00    -0.298 N 
ATOM      4  H   PHE A   1     -30.301 -12.485  18.043  0.00  0.00    +0.150 HD
ENDROOT
BRANCH   1   9
ATOM      5  C   UNK A   0     -32.660 -12.355  14.864  0.00  0.00    +0.037 A 
ATOM      6  C   UNK A   0     -32.511 -12.840  13.554  0.00  0.00    +0.013 A 
ATOM      7  C   UNK A   0     -31.358 -13.534  13.182  0.00  0.00    +0.001 A 
ATOM      8  C   UNK A   0     -30.340 -13.753  14.111  0.00  0.00    +0.013 A 
ATOM      9  C   UNK A   0     -30.463 -13.281  15.428  0.00  0.00    +0.037 A 
ATOM     10  C   UNK A   0     -31.622 -12.568  15.792  0.00  0.00    +0.026 A 
BRANCH   5  12
ATOM     11  N   UNK A   0     -34.116 -10.274  14.777  0.00  0.00    -0.325 N 
ATOM     12  C   UNK A   0     -33.884 -11.607  15.241  0.00  0.00    +0.242 C 
ATOM     13  O   UNK A   0     -34.736 -12.145  15.997  0.00  0.00    -0.270 OA
ATOM     14  H   UNK A   0     -35.012  -9.791  15.009  0.00  0.00    +0.145 HD
ATOM     15  H   UNK A   0     -33.378  -9.726  14.285  0.00  0.00    +0.145 HD
ENDBRANCH   5  12
ENDBRANCH   1   9
BRANCH   3  16
ATOM     16  CA  PHE A   1     -28.278 -13.017  18.641  0.00  0.00    +0.186 C 
BRANCH  16  17
ATOM     17  C   PHE A   1     -27.505 -11.731  18.590  0.00  0.00    +0.326 C 
ATOM     18  O   PHE A   1     -26.307 -11.694  18.982  0.00  0.00    -0.249 OA
BRANCH  17  19
ATOM     19  OXT PHE A   1     -28.106 -10.582  18.085  0.00  0.00    -0.479 OA
ATOM     20  HXT PHE A   1     -28.889 -10.153  18.562  0.00  0.00    +0.295 HD
ENDBRANCH  17  19
ENDBRANCH  16  17
BRANCH  16  21
ATOM     21  CB  PHE A   1     -28.743 -13.291  20.085  0.00  0.00    +0.069 C 
BRANCH  21  22
ATOM     22  CG  PHE A   1     -29.965 -12.480  20.436  0.00  0.00    -0.045 A 
ATOM     23  CD1 PHE A   1     -29.871 -11.390  21.318  0.00  0.00    +0.004 A 
ATOM     24  CE1 PHE A   1     -31.002 -10.626  21.617  0.00  0.00    +0.000 A 
ATOM     25  CZ  PHE A   1     -32.234 -10.941  21.037  0.00  0.00    +0.000 A 
ATOM     26  CE2 PHE A   1     -32.336 -12.020  20.155  0.00  0.00    +0.000 A 
ATOM     27  CD2 PHE A   1     -31.206 -12.787  19.853  0.00  0.00    +0.004 A 
ENDBRANCH  21  22
ENDBRANCH  16  21
ENDBRANCH   3  16
TORSDOF 7
ENDMDL
MODEL 9
REMARK VINA RESULT:    -4.844      2.883      5.519
REMARK INTER + INTRA:          -7.361
REMARK INTER:                  -6.408
REMARK INTRA:                  -0.954
REMARK UNBOUND:                -0.677
REMARK  Name = 
REMARK  7 active torsions:
REMARK  status: ('A' for Active; 'I' for Inactive)
REMARK    1  A    between atoms: C_2  and  C_4
REMARK    2  A    between atoms: C_8  and  C_10
REMARK    3  A    between atoms: N_12  and  CA_13
REMARK    4  A    between atoms: CA_13  and  CB_14
REMARK    5  A    between atoms: CA_13  and  C_21
REMARK    6  A    between atoms: CB_14  and  CG_15
REMARK    7  A    between atoms: C_21  and  OXT_23
REMARK                            x       y       z     vdW  Elec       q    Type
REMARK                         _______ _______ _______ _____ _____    ______ ____
ROOT
ATOM      1  C   UNK A   0     -29.905 -13.934  16.805  0.00  0.00    +0.245 C 
ATOM      2  O   UNK A   0     -30.558 -14.712  17.553  0.00  0.00    -0.270 OA
ATOM      3  N   PHE A   1     -29.156 -12.854  17.386  0.00  0.00    -0.298 N 
ATOM      4  H   PHE A   1     -28.748 -12.125  16.759  0.00  0.00    +0.150 HD
ENDROOT
BRANCH   1   9
ATOM      5  C   UNK A   0     -31.003 -13.770  13.159  0.00  0.00    +0.037 A 
ATOM      6  C   UNK A   0     -29.977 -14.515  12.552  0.00  0.00    +0.013 A 
ATOM      7  C   UNK A   0     -28.949 -15.062  13.321  0.00  0.00    +0.001 A 
ATOM      8  C   UNK A   0     -28.931 -14.875  14.704  0.00  0.00    +0.013 A 
ATOM      9  C   UNK A   0     -29.944 -14.136  15.337  0.00  0.00    +0.037 A 
ATOM     10  C   UNK A   0     -30.970 -13.574  14.553  0.00  0.00    +0.026 A 
BRANCH   5  12
ATOM     11  N   UNK A   0     -33.225 -13.948  11.937  0.00  0.00    -0.325 N 
ATOM     12  C   UNK A   0     -32.081 -13.183  12.327  0.00  0.00    +0.242 C 
ATOM     13  O   UNK A   0     -31.988 -11.987  11.938  0.00  0.00    -0.270 OA
ATOM     14  H   UNK A   0     -33.997 -13.494  11.401  0.00  0.00    +0.145 HD
ATOM     15  H   UNK A   0     -33.277 -14.978  12.095  0.00  0.00    +0.145 HD
ENDBRANCH   5  12
ENDBRANCH   1   9
BRANCH   3  16
ATOM     16  CA  PHE A   1     -28.967 -12.733  18.836  0.00  0.00    +0.186 C 
BRANCH  16  17
ATOM     17  C   PHE A   1     -27.502 -12.783  19.162  0.00  0.00    +0.326 C 
ATOM     18  O   PHE A   1     -26.811 -11.729  19.145  0.00  0.00    -0.249 OA
BRANCH  17  19
ATOM     19  OXT PHE A   1     -26.912 -13.994  19.508  0.00  0.00    -0.479 OA
ATOM     20  HXT PHE A   1     -26.264 -14.053  20.285  0.00  0.00    +0.295 HD
ENDBRANCH  17  19
ENDBRANCH  16  17
BRANCH  16  21
ATOM     21  CB  PHE A   1     -29.577 -11.423  19.370  0.00  0.00    +0.069 C 
BRANCH  21  22
ATOM     22  CG  PHE A   1     -30.582 -10.847  18.403  0.00  0.00    -0.045 A 
ATOM     23  CD1 PHE A   1     -30.158 -10.100  17.291  0.00  0.00    +0.004 A 
ATOM     24  CE1 PHE A   1     -31.093  -9.593  16.384  0.00  0.00    +0.000 A 
ATOM     25  CZ  PHE A   1     -32.457  -9.830  16.577  0.00  0.00    +0.000 A 
ATOM     26  CE2 PHE A   1     -32.887 -10.576  17.678  0.00  0.00    +0.000 A 
ATOM     27  CD2 PHE A   1     -31.955 -11.085  18.587  0.00  0.00    +0.004 A 
ENDBRANCH  21  22
ENDBRANCH  16  21
ENDBRANCH   3  16
TORSDOF 7
ENDMDL
