MODEL 1
REMARK VINA RESULT:    -4.599      0.000      0.000
REMARK INTER + INTRA:          -7.085
REMARK INTER:                  -6.077
REMARK INTRA:                  -1.008
REMARK UNBOUND:                -1.008
REMARK  Name = 
REMARK  7 active torsions:
REMARK  status: ('A' for Active; 'I' for Inactive)
REMARK    1  A    between atoms: C_1  and  C_2
REMARK    2  A    between atoms: C_5  and  C_7
REMARK    3  A    between atoms: N_9  and  C_10
REMARK    4  A    between atoms: C_10  and  C_11
REMARK    5  A    between atoms: C_10  and  C_15
REMARK    6  A    between atoms: C_11  and  C_12
REMARK    7  A    between atoms: C_12  and  O_14
REMARK                            x       y       z     vdW  Elec       q    Type
REMARK                         _______ _______ _______ _____ _____    ______ ____
ROOT
ATOM      1  C   UNL     1     -29.983 -10.388  17.520  0.00  0.00    +0.121 C 
ENDROOT
BRANCH   1   2
ATOM      2  C   UNL     1     -30.680 -11.065  16.370  0.00  0.00    +0.011 A 
ATOM      3  C   UNL     1     -31.592 -10.467  15.509  0.00  0.00    +0.013 A 
ATOM      4  C   UNL     1     -32.116 -11.352  14.560  0.00  0.00    +0.008 A 
ATOM      5  C   UNL     1     -31.628 -12.647  14.674  0.00  0.00    +0.045 A 
ATOM      6  S   UNL     1     -30.544 -12.692  15.959  0.00  0.00    -0.100 S 
ENDBRANCH   1   2
BRANCH   1   9
ATOM      7  C   UNL     1     -28.119 -11.636  18.707  0.00  0.00    +0.280 C 
ATOM      8  O   UNL     1     -27.250 -10.946  18.110  0.00  0.00    -0.267 OA
ATOM      9  N   UNL     1     -29.516 -11.396  18.476  0.00  0.00    -0.301 N 
ATOM     10  H   UNL     1     -30.216 -11.974  18.995  0.00  0.00    +0.150 HD
BRANCH   7  15
ATOM     11  C   UNL     1     -25.313 -15.061  20.834  0.00  0.00    +0.086 C 
ATOM     12  C   UNL     1     -26.478 -14.167  20.571  0.00  0.00    +0.103 A 
ATOM     13  C   UNL     1     -27.656 -14.151  21.291  0.00  0.00    +0.045 A 
ATOM     14  C   UNL     1     -28.445 -13.192  20.692  0.00  0.00    +0.055 A 
ATOM     15  C   UNL     1     -27.695 -12.689  19.643  0.00  0.00    +0.189 A 
ATOM     16  O   UNL     1     -26.529 -13.291  19.595  0.00  0.00    -0.455 OA
ENDBRANCH   7  15
ENDBRANCH   1   9
BRANCH   1  17
ATOM     17  C   UNL     1     -30.922  -9.385  18.216  0.00  0.00    +0.148 C 
BRANCH  17  18
ATOM     18  C   UNL     1     -30.650  -9.304  19.686  0.00  0.00    +0.307 C 
ATOM     19  O   UNL     1     -31.078 -10.203  20.458  0.00  0.00    -0.251 OA
BRANCH  18  20
ATOM     20  O   UNL     1     -29.887  -8.256  20.193  0.00  0.00    -0.481 OA
ATOM     21  H   UNL     1     -30.291  -7.337  20.326  0.00  0.00    +0.295 HD
ENDBRANCH  18  20
ENDBRANCH  17  18
ENDBRANCH   1  17
TORSDOF 6
ENDMDL
MODEL 2
REMARK VINA RESULT:    -4.510      3.044      5.764
REMARK INTER + INTRA:          -6.968
REMARK INTER:                  -5.916
REMARK INTRA:                  -1.052
REMARK UNBOUND:                -1.008
REMARK  Name = 
REMARK  7 active torsions:
REMARK  status: ('A' for Active; 'I' for Inactive)
REMARK    1  A    between atoms: C_1  and  C_2
REMARK    2  A    between atoms: C_5  and  C_7
REMARK    3  A    between atoms: N_9  and  C_10
REMARK    4  A    between atoms: C_10  and  C_11
REMARK    5  A    between atoms: C_10  and  C_15
REMARK    6  A    between atoms: C_11  and  C_12
REMARK    7  A    between atoms: C_12  and  O_14
REMARK                            x       y       z     vdW  Elec       q    Type
REMARK                         _______ _______ _______ _____ _____    ______ ____
ROOT
ATOM      1  C   UNL     1     -29.165 -12.843  19.486  0.00  0.00    +0.121 C 
ENDROOT
BRANCH   1   2
ATOM      2  C   UNL     1     -27.967 -13.367  20.230  0.00  0.00    +0.011 A 
ATOM      3  C   UNL     1     -26.649 -13.306  19.792  0.00  0.00    +0.013 A 
ATOM      4  C   UNL     1     -25.747 -13.915  20.671  0.00  0.00    +0.008 A 
ATOM      5  C   UNL     1     -26.347 -14.464  21.797  0.00  0.00    +0.045 A 
ATOM      6  S   UNL     1     -28.004 -14.192  21.697  0.00  0.00    -0.100 S 
ENDBRANCH   1   2
BRANCH   1   9
ATOM      7  C   UNL     1     -29.903 -13.993  17.347  0.00  0.00    +0.280 C 
ATOM      8  O   UNL     1     -30.874 -14.529  17.947  0.00  0.00    -0.267 OA
ATOM      9  N   UNL     1     -29.013 -13.115  18.053  0.00  0.00    -0.301 N 
ATOM     10  H   UNL     1     -28.224 -12.674  17.528  0.00  0.00    +0.150 HD
BRANCH   7  15
ATOM     11  C   UNL     1     -27.572 -15.062  13.158  0.00  0.00    +0.086 C 
ATOM     12  C   UNL     1     -28.679 -14.744  14.104  0.00  0.00    +0.103 A 
ATOM     13  C   UNL     1     -30.009 -14.597  13.764  0.00  0.00    +0.045 A 
ATOM     14  C   UNL     1     -30.663 -14.293  14.939  0.00  0.00    +0.055 A 
ATOM     15  C   UNL     1     -29.686 -14.273  15.919  0.00  0.00    +0.189 A 
ATOM     16  O   UNL     1     -28.514 -14.543  15.391  0.00  0.00    -0.455 OA
ENDBRANCH   7  15
ENDBRANCH   1   9
BRANCH   1  17
ATOM     17  C   UNL     1     -29.343 -11.332  19.727  0.00  0.00    +0.148 C 
BRANCH  17  18
ATOM     18  C   UNL     1     -29.072 -10.540  18.485  0.00  0.00    +0.307 C 
ATOM     19  O   UNL     1     -27.932 -10.576  17.949  0.00  0.00    -0.251 OA
BRANCH  18  20
ATOM     20  O   UNL     1     -30.094  -9.798  17.901  0.00  0.00    -0.481 OA
ATOM     21  H   UNL     1     -30.172  -9.726  16.893  0.00  0.00    +0.295 HD
ENDBRANCH  18  20
ENDBRANCH  17  18
ENDBRANCH   1  17
TORSDOF 6
ENDMDL
MODEL 3
REMARK VINA RESULT:    -4.395      2.683      3.459
REMARK INTER + INTRA:          -6.817
REMARK INTER:                  -5.994
REMARK INTRA:                  -0.823
REMARK UNBOUND:                -1.008
REMARK  Name = 
REMARK  7 active torsions:
REMARK  status: ('A' for Active; 'I' for Inactive)
REMARK    1  A    between atoms: C_1  and  C_2
REMARK    2  A    between atoms: C_5  and  C_7
REMARK    3  A    between atoms: N_9  and  C_10
REMARK    4  A    between atoms: C_10  and  C_11
REMARK    5  A    between atoms: C_10  and  C_15
REMARK    6  A    between atoms: C_11  and  C_12
REMARK    7  A    between atoms: C_12  and  O_14
REMARK                            x       y       z     vdW  Elec       q    Type
REMARK                         _______ _______ _______ _____ _____    ______ ____
ROOT
ATOM      1  C   UNL     1     -30.376 -13.611  16.560  0.00  0.00    +0.121 C 
ENDROOT
BRANCH   1   2
ATOM      2  C   UNL     1     -29.849 -14.100  15.238  0.00  0.00    +0.011 A 
ATOM      3  C   UNL     1     -28.604 -14.679  15.025  0.00  0.00    +0.013 A 
ATOM      4  C   UNL     1     -28.365 -14.995  13.683  0.00  0.00    +0.008 A 
ATOM      5  C   UNL     1     -29.412 -14.662  12.834  0.00  0.00    +0.045 A 
ATOM      6  S   UNL     1     -30.638 -13.969  13.756  0.00  0.00    -0.100 S 
ENDBRANCH   1   2
BRANCH   1   9
ATOM      7  C   UNL     1     -29.240 -13.119  18.775  0.00  0.00    +0.280 C 
ATOM      8  O   UNL     1     -29.921 -12.066  18.912  0.00  0.00    -0.267 OA
ATOM      9  N   UNL     1     -29.432 -13.958  17.626  0.00  0.00    -0.301 N 
ATOM     10  H   UNL     1     -28.864 -14.832  17.544  0.00  0.00    +0.150 HD
BRANCH   7  15
ATOM     11  C   UNL     1     -24.951 -14.409  20.791  0.00  0.00    +0.086 C 
ATOM     12  C   UNL     1     -26.390 -14.034  20.675  0.00  0.00    +0.103 A 
ATOM     13  C   UNL     1     -27.284 -13.950  21.724  0.00  0.00    +0.045 A 
ATOM     14  C   UNL     1     -28.489 -13.591  21.158  0.00  0.00    +0.055 A 
ATOM     15  C   UNL     1     -28.249 -13.483  19.799  0.00  0.00    +0.189 A 
ATOM     16  O   UNL     1     -26.991 -13.754  19.542  0.00  0.00    -0.455 OA
ENDBRANCH   7  15
ENDBRANCH   1   9
BRANCH   1  17
ATOM     17  C   UNL     1     -31.762 -14.216  16.855  0.00  0.00    +0.148 C 
BRANCH  17  18
ATOM     18  C   UNL     1     -32.700 -13.196  17.421  0.00  0.00    +0.307 C 
ATOM     19  O   UNL     1     -33.512 -12.596  16.666  0.00  0.00    -0.251 OA
BRANCH  18  20
ATOM     20  O   UNL     1     -32.705 -12.943  18.789  0.00  0.00    -0.481 OA
ATOM     21  H   UNL     1     -32.053 -13.413  19.407  0.00  0.00    +0.295 HD
ENDBRANCH  18  20
ENDBRANCH  17  18
ENDBRANCH   1  17
TORSDOF 6
ENDMDL
MODEL 4
REMARK VINA RESULT:    -4.352      2.952      5.757
REMARK INTER + INTRA:          -6.759
REMARK INTER:                  -5.740
REMARK INTRA:                  -1.019
REMARK UNBOUND:                -1.008
REMARK  Name = 
REMARK  7 active torsions:
REMARK  status: ('A' for Active; 'I' for Inactive)
REMARK    1  A    between atoms: C_1  and  C_2
REMARK    2  A    between atoms: C_5  and  C_7
REMARK    3  A    between atoms: N_9  and  C_10
REMARK    4  A    between atoms: C_10  and  C_11
REMARK    5  A    between atoms: C_10  and  C_15
REMARK    6  A    between atoms: C_11  and  C_12
REMARK    7  A    between atoms: C_12  and  O_14
REMARK                            x       y       z     vdW  Elec       q    Type
REMARK                         _______ _______ _______ _____ _____    ______ ____
ROOT
ATOM      1  C   UNL     1     -29.280 -12.747  19.437  0.00  0.00    +0.121 C 
ENDROOT
BRANCH   1   2
ATOM      2  C   UNL     1     -28.166 -13.330  20.263  0.00  0.00    +0.011 A 
ATOM      3  C   UNL     1     -28.308 -13.939  21.504  0.00  0.00    +0.013 A 
ATOM      4  C   UNL     1     -27.091 -14.346  22.062  0.00  0.00    +0.008 A 
ATOM      5  C   UNL     1     -25.988 -14.054  21.271  0.00  0.00    +0.045 A 
ATOM      6  S   UNL     1     -26.528 -13.286  19.875  0.00  0.00    -0.100 S 
ENDBRANCH   1   2
BRANCH   1   9
ATOM      7  C   UNL     1     -30.030 -13.929  17.320  0.00  0.00    +0.280 C 
ATOM      8  O   UNL     1     -31.078 -14.334  17.895  0.00  0.00    -0.267 OA
ATOM      9  N   UNL     1     -29.090 -13.107  18.028  0.00  0.00    -0.301 N 
ATOM     10  H   UNL     1     -28.237 -12.774  17.524  0.00  0.00    +0.150 HD
BRANCH   7  15
ATOM     11  C   UNL     1     -27.575 -15.062  13.220  0.00  0.00    +0.086 C 
ATOM     12  C   UNL     1     -28.716 -14.803  14.145  0.00  0.00    +0.103 A 
ATOM     13  C   UNL     1     -30.053 -14.853  13.805  0.00  0.00    +0.045 A 
ATOM     14  C   UNL     1     -30.742 -14.531  14.955  0.00  0.00    +0.055 A 
ATOM     15  C   UNL     1     -29.777 -14.304  15.920  0.00  0.00    +0.189 A 
ATOM     16  O   UNL     1     -28.580 -14.471  15.408  0.00  0.00    -0.455 OA
ENDBRANCH   7  15
ENDBRANCH   1   9
BRANCH   1  17
ATOM     17  C   UNL     1     -29.336 -11.215  19.594  0.00  0.00    +0.148 C 
BRANCH  17  18
ATOM     18  C   UNL     1     -28.998 -10.517  18.313  0.00  0.00    +0.307 C 
ATOM     19  O   UNL     1     -29.878  -9.848  17.707  0.00  0.00    -0.251 OA
BRANCH  18  20
ATOM     20  O   UNL     1     -27.699 -10.571  17.816  0.00  0.00    -0.481 OA
ATOM     21  H   UNL     1     -27.514 -10.420  16.831  0.00  0.00    +0.295 HD
ENDBRANCH  18  20
ENDBRANCH  17  18
ENDBRANCH   1  17
TORSDOF 6
ENDMDL
MODEL 5
REMARK VINA RESULT:    -4.327      3.002      5.523
REMARK INTER + INTRA:          -6.727
REMARK INTER:                  -5.814
REMARK INTRA:                  -0.913
REMARK UNBOUND:                -1.008
REMARK  Name = 
REMARK  7 active torsions:
REMARK  status: ('A' for Active; 'I' for Inactive)
REMARK    1  A    between atoms: C_1  and  C_2
REMARK    2  A    between atoms: C_5  and  C_7
REMARK    3  A    between atoms: N_9  and  C_10
REMARK    4  A    between atoms: C_10  and  C_11
REMARK    5  A    between atoms: C_10  and  C_15
REMARK    6  A    between atoms: C_11  and  C_12
REMARK    7  A    between atoms: C_12  and  O_14
REMARK                            x       y       z     vdW  Elec       q    Type
REMARK                         _______ _______ _______ _____ _____    ______ ____
ROOT
ATOM      1  C   UNL     1     -28.697 -12.628  20.335  0.00  0.00    +0.121 C 
ENDROOT
BRANCH   1   2
ATOM      2  C   UNL     1     -30.015 -12.089  20.824  0.00  0.00    +0.011 A 
ATOM      3  C   UNL     1     -31.263 -12.389  20.290  0.00  0.00    +0.013 A 
ATOM      4  C   UNL     1     -32.310 -11.706  20.919  0.00  0.00    +0.008 A 
ATOM      5  C   UNL     1     -31.894 -10.862  21.940  0.00  0.00    +0.045 A 
ATOM      6  S   UNL     1     -30.219 -10.965  22.061  0.00  0.00    -0.100 S 
ENDBRANCH   1   2
BRANCH   1   9
ATOM      7  C   UNL     1     -28.813 -12.818  17.807  0.00  0.00    +0.280 C 
ATOM      8  O   UNL     1     -28.503 -11.601  17.682  0.00  0.00    -0.267 OA
ATOM      9  N   UNL     1     -28.908 -13.408  19.112  0.00  0.00    -0.301 N 
ATOM     10  H   UNL     1     -29.153 -14.422  19.186  0.00  0.00    +0.150 HD
BRANCH   7  15
ATOM     11  C   UNL     1     -28.075 -15.046  13.492  0.00  0.00    +0.086 C 
ATOM     12  C   UNL     1     -28.755 -14.601  14.743  0.00  0.00    +0.103 A 
ATOM     13  C   UNL     1     -30.053 -14.905  15.102  0.00  0.00    +0.045 A 
ATOM     14  C   UNL     1     -30.262 -14.276  16.312  0.00  0.00    +0.055 A 
ATOM     15  C   UNL     1     -29.076 -13.628  16.608  0.00  0.00    +0.189 A 
ATOM     16  O   UNL     1     -28.198 -13.838  15.654  0.00  0.00    -0.455 OA
ENDBRANCH   7  15
ENDBRANCH   1   9
BRANCH   1  17
ATOM     17  C   UNL     1     -28.026 -13.497  21.415  0.00  0.00    +0.148 C 
BRANCH  17  18
ATOM     18  C   UNL     1     -26.661 -13.947  20.992  0.00  0.00    +0.307 C 
ATOM     19  O   UNL     1     -25.664 -13.715  21.727  0.00  0.00    -0.251 OA
BRANCH  18  20
ATOM     20  O   UNL     1     -26.503 -14.658  19.807  0.00  0.00    -0.481 OA
ATOM     21  H   UNL     1     -27.289 -15.130  19.375  0.00  0.00    +0.295 HD
ENDBRANCH  18  20
ENDBRANCH  17  18
ENDBRANCH   1  17
TORSDOF 6
ENDMDL
MODEL 6
REMARK VINA RESULT:    -4.321      2.319      3.765
REMARK INTER + INTRA:          -6.719
REMARK INTER:                  -5.682
REMARK INTRA:                  -1.037
REMARK UNBOUND:                -1.008
REMARK  Name = 
REMARK  7 active torsions:
REMARK  status: ('A' for Active; 'I' for Inactive)
REMARK    1  A    between atoms: C_1  and  C_2
REMARK    2  A    between atoms: C_5  and  C_7
REMARK    3  A    between atoms: N_9  and  C_10
REMARK    4  A    between atoms: C_10  and  C_11
REMARK    5  A    between atoms: C_10  and  C_15
REMARK    6  A    between atoms: C_11  and  C_12
REMARK    7  A    between atoms: C_12  and  O_14
REMARK                            x       y       z     vdW  Elec       q    Type
REMARK                         _______ _______ _______ _____ _____    ______ ____
ROOT
ATOM      1  C   UNL     1     -30.876 -13.592  17.357  0.00  0.00    +0.121 C 
ENDROOT
BRANCH   1   2
ATOM      2  C   UNL     1     -31.026 -12.150  16.952  0.00  0.00    +0.011 A 
ATOM      3  C   UNL     1     -32.064 -11.625  16.192  0.00  0.00    +0.013 A 
ATOM      4  C   UNL     1     -31.919 -10.258  15.930  0.00  0.00    +0.008 A 
ATOM      5  C   UNL     1     -30.768  -9.704  16.474  0.00  0.00    +0.045 A 
ATOM      6  S   UNL     1     -29.927 -10.917  17.280  0.00  0.00    -0.100 S 
ENDBRANCH   1   2
BRANCH   1   9
ATOM      7  C   UNL     1     -29.684 -13.579  19.598  0.00  0.00    +0.280 C 
ATOM      8  O   UNL     1     -30.765 -13.319  20.193  0.00  0.00    -0.267 OA
ATOM      9  N   UNL     1     -29.668 -13.752  18.173  0.00  0.00    -0.301 N 
ATOM     10  H   UNL     1     -28.760 -13.980  17.706  0.00  0.00    +0.150 HD
BRANCH   7  15
ATOM     11  C   UNL     1     -24.938 -14.335  20.610  0.00  0.00    +0.086 C 
ATOM     12  C   UNL     1     -26.382 -14.023  20.811  0.00  0.00    +0.103 A 
ATOM     13  C   UNL     1     -26.983 -13.747  22.024  0.00  0.00    +0.045 A 
ATOM     14  C   UNL     1     -28.316 -13.539  21.740  0.00  0.00    +0.055 A 
ATOM     15  C   UNL     1     -28.440 -13.704  20.372  0.00  0.00    +0.189 A 
ATOM     16  O   UNL     1     -27.272 -13.994  19.846  0.00  0.00    -0.455 OA
ENDBRANCH   7  15
ENDBRANCH   1   9
BRANCH   1  17
ATOM     17  C   UNL     1     -30.808 -14.504  16.118  0.00  0.00    +0.148 C 
BRANCH  17  18
ATOM     18  C   UNL     1     -29.504 -14.359  15.396  0.00  0.00    +0.307 C 
ATOM     19  O   UNL     1     -29.479 -13.900  14.223  0.00  0.00    -0.251 OA
BRANCH  18  20
ATOM     20  O   UNL     1     -28.316 -14.692  16.039  0.00  0.00    -0.481 OA
ATOM     21  H   UNL     1     -27.478 -14.139  15.901  0.00  0.00    +0.295 HD
ENDBRANCH  18  20
ENDBRANCH  17  18
ENDBRANCH   1  17
TORSDOF 6
ENDMDL
MODEL 7
REMARK VINA RESULT:    -4.205      3.091      5.817
REMARK INTER + INTRA:          -6.565
REMARK INTER:                  -5.851
REMARK INTRA:                  -0.714
REMARK UNBOUND:                -1.008
REMARK  Name = 
REMARK  7 active torsions:
REMARK  status: ('A' for Active; 'I' for Inactive)
REMARK    1  A    between atoms: C_1  and  C_2
REMARK    2  A    between atoms: C_5  and  C_7
REMARK    3  A    between atoms: N_9  and  C_10
REMARK    4  A    between atoms: C_10  and  C_11
REMARK    5  A    between atoms: C_10  and  C_15
REMARK    6  A    between atoms: C_11  and  C_12
REMARK    7  A    between atoms: C_12  and  O_14
REMARK                            x       y       z     vdW  Elec       q    Type
REMARK                         _______ _______ _______ _____ _____    ______ ____
ROOT
ATOM      1  C   UNL     1     -28.802 -13.048  19.872  0.00  0.00    +0.121 C 
ENDROOT
BRANCH   1   2
ATOM      2  C   UNL     1     -27.559 -13.585  20.528  0.00  0.00    +0.011 A 
ATOM      3  C   UNL     1     -26.285 -13.589  19.973  0.00  0.00    +0.013 A 
ATOM      4  C   UNL     1     -25.327 -14.195  20.793  0.00  0.00    +0.008 A 
ATOM      5  C   UNL     1     -25.841 -14.678  21.990  0.00  0.00    +0.045 A 
ATOM      6  S   UNL     1     -27.491 -14.351  22.026  0.00  0.00    -0.100 S 
ENDBRANCH   1   2
BRANCH   1   9
ATOM      7  C   UNL     1     -29.880 -13.912  17.743  0.00  0.00    +0.280 C 
ATOM      8  O   UNL     1     -30.952 -14.155  18.361  0.00  0.00    -0.267 OA
ATOM      9  N   UNL     1     -28.763 -13.333  18.434  0.00  0.00    -0.301 N 
ATOM     10  H   UNL     1     -27.891 -13.129  17.894  0.00  0.00    +0.150 HD
BRANCH   7  15
ATOM     11  C   UNL     1     -27.899 -15.062  13.398  0.00  0.00    +0.086 C 
ATOM     12  C   UNL     1     -28.926 -14.729  14.427  0.00  0.00    +0.103 A 
ATOM     13  C   UNL     1     -30.281 -14.599  14.196  0.00  0.00    +0.045 A 
ATOM     14  C   UNL     1     -30.837 -14.272  15.415  0.00  0.00    +0.055 A 
ATOM     15  C   UNL     1     -29.782 -14.223  16.309  0.00  0.00    +0.189 A 
ATOM     16  O   UNL     1     -28.656 -14.497  15.691  0.00  0.00    -0.455 OA
ENDBRANCH   7  15
ENDBRANCH   1   9
BRANCH   1  17
ATOM     17  C   UNL     1     -28.938 -11.533  20.113  0.00  0.00    +0.148 C 
BRANCH  17  18
ATOM     18  C   UNL     1     -29.912 -11.233  21.211  0.00  0.00    +0.307 C 
ATOM     19  O   UNL     1     -30.886 -12.006  21.418  0.00  0.00    -0.251 OA
BRANCH  18  20
ATOM     20  O   UNL     1     -29.715 -10.125  22.028  0.00  0.00    -0.481 OA
ATOM     21  H   UNL     1     -30.131  -9.230  21.799  0.00  0.00    +0.295 HD
ENDBRANCH  18  20
ENDBRANCH  17  18
ENDBRANCH   1  17
TORSDOF 6
ENDMDL
MODEL 8
REMARK VINA RESULT:    -4.139      1.646      2.120
REMARK INTER + INTRA:          -6.477
REMARK INTER:                  -5.347
REMARK INTRA:                  -1.131
REMARK UNBOUND:                -1.008
REMARK  Name = 
REMARK  7 active torsions:
REMARK  status: ('A' for Active; 'I' for Inactive)
REMARK    1  A    between atoms: C_1  and  C_2
REMARK    2  A    between atoms: C_5  and  C_7
REMARK    3  A    between atoms: N_9  and  C_10
REMARK    4  A    between atoms: C_10  and  C_11
REMARK    5  A    between atoms: C_10  and  C_15
REMARK    6  A    between atoms: C_11  and  C_12
REMARK    7  A    between atoms: C_12  and  O_14
REMARK                            x       y       z     vdW  Elec       q    Type
REMARK                         _______ _______ _______ _____ _____    ______ ____
ROOT
ATOM      1  C   UNL     1     -30.697 -11.630  16.927  0.00  0.00    +0.121 C 
ENDROOT
BRANCH   1   2
ATOM      2  C   UNL     1     -30.792 -12.456  15.673  0.00  0.00    +0.011 A 
ATOM      3  C   UNL     1     -31.631 -12.202  14.594  0.00  0.00    +0.013 A 
ATOM      4  C   UNL     1     -31.540 -13.166  13.584  0.00  0.00    +0.008 A 
ATOM      5  C   UNL     1     -30.638 -14.185  13.864  0.00  0.00    +0.045 A 
ATOM      6  S   UNL     1     -29.955 -13.886  15.372  0.00  0.00    -0.100 S 
ENDBRANCH   1   2
BRANCH   1   9
ATOM      7  C   UNL     1     -28.721 -11.962  18.484  0.00  0.00    +0.280 C 
ATOM      8  O   UNL     1     -28.197 -10.889  18.079  0.00  0.00    -0.267 OA
ATOM      9  N   UNL     1     -29.990 -12.387  17.964  0.00  0.00    -0.301 N 
ATOM     10  H   UNL     1     -30.409 -13.274  18.327  0.00  0.00    +0.150 HD
BRANCH   7  15
ATOM     11  C   UNL     1     -25.113 -14.405  20.752  0.00  0.00    +0.086 C 
ATOM     12  C   UNL     1     -26.462 -13.829  20.480  0.00  0.00    +0.103 A 
ATOM     13  C   UNL     1     -27.578 -13.988  21.277  0.00  0.00    +0.045 A 
ATOM     14  C   UNL     1     -28.592 -13.305  20.639  0.00  0.00    +0.055 A 
ATOM     15  C   UNL     1     -28.026 -12.777  19.492  0.00  0.00    +0.189 A 
ATOM     16  O   UNL     1     -26.757 -13.107  19.424  0.00  0.00    -0.455 OA
ENDBRANCH   7  15
ENDBRANCH   1   9
BRANCH   1  17
ATOM     17  C   UNL     1     -32.098 -11.224  17.422  0.00  0.00    +0.148 C 
BRANCH  17  18
ATOM     18  C   UNL     1     -32.567 -12.108  18.537  0.00  0.00    +0.307 C 
ATOM     19  O   UNL     1     -33.113 -11.604  19.555  0.00  0.00    -0.251 OA
BRANCH  18  20
ATOM     20  O   UNL     1     -32.438 -13.489  18.427  0.00  0.00    -0.481 OA
ATOM     21  H   UNL     1     -33.166 -14.046  17.995  0.00  0.00    +0.295 HD
ENDBRANCH  18  20
ENDBRANCH  17  18
ENDBRANCH   1  17
TORSDOF 6
ENDMDL
MODEL 9
REMARK VINA RESULT:    -4.124      2.751      6.291
REMARK INTER + INTRA:          -6.459
REMARK INTER:                  -5.467
REMARK INTRA:                  -0.992
REMARK UNBOUND:                -1.008
REMARK  Name = 
REMARK  7 active torsions:
REMARK  status: ('A' for Active; 'I' for Inactive)
REMARK    1  A    between atoms: C_1  and  C_2
REMARK    2  A    between atoms: C_5  and  C_7
REMARK    3  A    between atoms: N_9  and  C_10
REMARK    4  A    between atoms: C_10  and  C_11
REMARK    5  A    between atoms: C_10  and  C_15
REMARK    6  A    between atoms: C_11  and  C_12
REMARK    7  A    between atoms: C_12  and  O_14
REMARK                            x       y       z     vdW  Elec       q    Type
REMARK                         _______ _______ _______ _____ _____    ______ ____
ROOT
ATOM      1  C   UNL     1     -29.077 -10.705  18.366  0.00  0.00    +0.121 C 
ENDROOT
BRANCH   1   2
ATOM      2  C   UNL     1     -29.776 -10.258  19.621  0.00  0.00    +0.011 A 
ATOM      3  C   UNL     1     -30.502  -9.083  19.772  0.00  0.00    +0.013 A 
ATOM      4  C   UNL     1     -31.003  -8.905  21.066  0.00  0.00    +0.008 A 
ATOM      5  C   UNL     1     -30.669  -9.931  21.940  0.00  0.00    +0.045 A 
ATOM      6  S   UNL     1     -29.746 -11.060  21.102  0.00  0.00    -0.100 S 
ENDBRANCH   1   2
BRANCH   1   9
ATOM      7  C   UNL     1     -30.570 -10.334  16.347  0.00  0.00    +0.280 C 
ATOM      8  O   UNL     1     -30.136  -9.157  16.218  0.00  0.00    -0.267 OA
ATOM      9  N   UNL     1     -30.066 -11.179  17.393  0.00  0.00    -0.301 N 
ATOM     10  H   UNL     1     -30.434 -12.155  17.469  0.00  0.00    +0.150 HD
BRANCH   7  15
ATOM     11  C   UNL     1     -32.663 -12.980  12.777  0.00  0.00    +0.086 C 
ATOM     12  C   UNL     1     -32.507 -11.987  13.880  0.00  0.00    +0.103 A 
ATOM     13  C   UNL     1     -33.495 -11.143  14.346  0.00  0.00    +0.045 A 
ATOM     14  C   UNL     1     -32.906 -10.397  15.346  0.00  0.00    +0.055 A 
ATOM     15  C   UNL     1     -31.596 -10.836  15.421  0.00  0.00    +0.189 A 
ATOM     16  O   UNL     1     -31.387 -11.782  14.534  0.00  0.00    -0.455 OA
ENDBRANCH   7  15
ENDBRANCH   1   9
BRANCH   1  17
ATOM     17  C   UNL     1     -28.055 -11.816  18.673  0.00  0.00    +0.148 C 
BRANCH  17  18
ATOM     18  C   UNL     1     -28.518 -13.147  18.166  0.00  0.00    +0.307 C 
ATOM     19  O   UNL     1     -28.343 -13.457  16.957  0.00  0.00    -0.251 OA
BRANCH  18  20
ATOM     20  O   UNL     1     -29.102 -14.058  19.041  0.00  0.00    -0.481 OA
ATOM     21  H   UNL     1     -28.808 -15.028  19.053  0.00  0.00    +0.295 HD
ENDBRANCH  18  20
ENDBRANCH  17  18
ENDBRANCH   1  17
TORSDOF 6
ENDMDL
