MODEL 1
REMARK VINA RESULT:    -4.332      0.000      0.000
REMARK INTER + INTRA:          -7.708
REMARK INTER:                  -5.598
REMARK INTRA:                  -2.110
REMARK UNBOUND:                -2.110
REMARK  Name = 
REMARK  8 active torsions:
REMARK  status: ('A' for Active; 'I' for Inactive)
REMARK    1  A    between atoms: C_1  and  C_2
REMARK    2  A    between atoms: C_5  and  C_6
REMARK    3  A    between atoms: C_7  and  C_8
REMARK    4  A    between atoms: C_8  and  N_9
REMARK    5  A    between atoms: C_10  and  C_12
REMARK    6  A    between atoms: C_12  and  C_13
REMARK    7  A    between atoms: C_12  and  S_14
REMARK    8  A    between atoms: S_14  and  C_17
REMARK                            x       y       z     vdW  Elec       q    Type
REMARK                         _______ _______ _______ _____ _____    ______ ____
ROOT
ATOM      1  N   UNL     1     -30.713 -11.742  20.349  0.00  0.00    -0.309 N 
ATOM      2  C   UNL     1     -32.045 -11.213  20.428  0.00  0.00    +0.238 C 
ATOM      3  O   UNL     1     -33.038 -11.989  20.352  0.00  0.00    -0.274 OA
ATOM      4  H   UNL     1     -29.898 -11.100  20.476  0.00  0.00    +0.149 HD
ENDROOT
BRANCH   2   5
ATOM      5  C   UNL     1     -32.263  -9.733  20.588  0.00  0.00    +0.218 C 
ATOM      6  C   UNL     1     -31.886  -9.285  22.002  0.00  0.00    +0.042 C 
BRANCH   5   7
ATOM      7  S   UNL     1     -31.323  -8.832  19.359  0.00  0.00    +0.008 S 
ATOM      8  O   UNL     1     -29.852  -9.017  19.611  0.00  0.00    -0.169 OA
ATOM      9  O   UNL     1     -31.641  -7.364  19.439  0.00  0.00    -0.169 OA
BRANCH   7  10
ATOM     10  C   UNL     1     -31.713  -9.440  17.752  0.00  0.00    +0.089 A 
ATOM     11  C   UNL     1     -33.030  -9.391  17.274  0.00  0.00    +0.030 A 
ATOM     12  C   UNL     1     -33.336  -9.894  16.005  0.00  0.00    +0.040 A 
ATOM     13  C   UNL     1     -32.328 -10.449  15.211  0.00  0.00    +0.124 A 
ATOM     14  F   UNL     1     -32.625 -10.936  13.981  0.00  0.00    -0.205 F 
ATOM     15  C   UNL     1     -31.015 -10.506  15.687  0.00  0.00    +0.040 A 
ATOM     16  C   UNL     1     -30.707 -10.004  16.955  0.00  0.00    +0.030 A 
ENDBRANCH   7  10
ENDBRANCH   5   7
ENDBRANCH   2   5
BRANCH   1  17
ATOM     17  C   UNL     1     -30.447 -13.151  20.073  0.00  0.00    +0.145 C 
BRANCH  17  24
ATOM     18  C   UNL     1     -31.571 -14.270  17.293  0.00  0.00    +0.069 C 
ATOM     19  C   UNL     1     -30.193 -13.760  17.564  0.00  0.00    +0.085 A 
ATOM     20  N   UNL     1     -29.200 -13.759  16.654  0.00  0.00    -0.083 NA
ATOM     21  O   UNL     1     -28.136 -13.302  17.250  0.00  0.00    -0.359 OA
ATOM     22  C   UNL     1     -28.382 -13.013  18.507  0.00  0.00    +0.139 A 
ATOM     23  C   UNL     1     -27.366 -12.474  19.460  0.00  0.00    +0.089 C 
ATOM     24  C   UNL     1     -29.706 -13.300  18.774  0.00  0.00    +0.034 A 
ENDBRANCH  17  24
ENDBRANCH   1  17
TORSDOF 5
ENDMDL
MODEL 2
REMARK VINA RESULT:    -4.310      0.387      1.669
REMARK INTER + INTRA:          -7.681
REMARK INTER:                  -5.516
REMARK INTRA:                  -2.164
REMARK UNBOUND:                -2.110
REMARK  Name = 
REMARK  8 active torsions:
REMARK  status: ('A' for Active; 'I' for Inactive)
REMARK    1  A    between atoms: C_1  and  C_2
REMARK    2  A    between atoms: C_5  and  C_6
REMARK    3  A    between atoms: C_7  and  C_8
REMARK    4  A    between atoms: C_8  and  N_9
REMARK    5  A    between atoms: C_10  and  C_12
REMARK    6  A    between atoms: C_12  and  C_13
REMARK    7  A    between atoms: C_12  and  S_14
REMARK    8  A    between atoms: S_14  and  C_17
REMARK                            x       y       z     vdW  Elec       q    Type
REMARK                         _______ _______ _______ _____ _____    ______ ____
ROOT
ATOM      1  N   UNL     1     -30.723 -11.757  20.401  0.00  0.00    -0.309 N 
ATOM      2  C   UNL     1     -32.054 -11.221  20.437  0.00  0.00    +0.238 C 
ATOM      3  O   UNL     1     -33.048 -11.991  20.324  0.00  0.00    -0.274 OA
ATOM      4  H   UNL     1     -29.910 -11.120  20.559  0.00  0.00    +0.149 HD
ENDROOT
BRANCH   2   5
ATOM      5  C   UNL     1     -32.269  -9.740  20.597  0.00  0.00    +0.218 C 
ATOM      6  C   UNL     1     -31.898  -9.293  22.012  0.00  0.00    +0.042 C 
BRANCH   5   7
ATOM      7  S   UNL     1     -31.322  -8.841  19.372  0.00  0.00    +0.008 S 
ATOM      8  O   UNL     1     -29.852  -9.029  19.632  0.00  0.00    -0.169 OA
ATOM      9  O   UNL     1     -31.637  -7.373  19.451  0.00  0.00    -0.169 OA
BRANCH   7  10
ATOM     10  C   UNL     1     -31.705  -9.448  17.764  0.00  0.00    +0.089 A 
ATOM     11  C   UNL     1     -33.019  -9.394  17.277  0.00  0.00    +0.030 A 
ATOM     12  C   UNL     1     -33.319  -9.896  16.007  0.00  0.00    +0.040 A 
ATOM     13  C   UNL     1     -32.310 -10.456  15.219  0.00  0.00    +0.124 A 
ATOM     14  F   UNL     1     -32.602 -10.943  13.988  0.00  0.00    -0.205 F 
ATOM     15  C   UNL     1     -31.000 -10.518  15.703  0.00  0.00    +0.040 A 
ATOM     16  C   UNL     1     -30.697 -10.017  16.973  0.00  0.00    +0.030 A 
ENDBRANCH   7  10
ENDBRANCH   5   7
ENDBRANCH   2   5
BRANCH   1  17
ATOM     17  C   UNL     1     -30.455 -13.166  20.128  0.00  0.00    +0.145 C 
BRANCH  17  24
ATOM     18  C   UNL     1     -27.412 -12.448  19.442  0.00  0.00    +0.069 C 
ATOM     19  C   UNL     1     -28.427 -13.034  18.515  0.00  0.00    +0.085 A 
ATOM     20  N   UNL     1     -28.195 -13.291  17.214  0.00  0.00    -0.083 NA
ATOM     21  O   UNL     1     -29.310 -13.738  16.708  0.00  0.00    -0.359 OA
ATOM     22  C   UNL     1     -30.261 -13.776  17.613  0.00  0.00    +0.139 A 
ATOM     23  C   UNL     1     -31.657 -14.235  17.347  0.00  0.00    +0.089 C 
ATOM     24  C   UNL     1     -29.748 -13.319  18.811  0.00  0.00    +0.034 A 
ENDBRANCH  17  24
ENDBRANCH   1  17
TORSDOF 5
ENDMDL
MODEL 3
REMARK VINA RESULT:    -3.895      3.130      4.900
REMARK INTER + INTRA:          -7.144
REMARK INTER:                  -5.487
REMARK INTRA:                  -1.658
REMARK UNBOUND:                -2.110
REMARK  Name = 
REMARK  8 active torsions:
REMARK  status: ('A' for Active; 'I' for Inactive)
REMARK    1  A    between atoms: C_1  and  C_2
REMARK    2  A    between atoms: C_5  and  C_6
REMARK    3  A    between atoms: C_7  and  C_8
REMARK    4  A    between atoms: C_8  and  N_9
REMARK    5  A    between atoms: C_10  and  C_12
REMARK    6  A    between atoms: C_12  and  C_13
REMARK    7  A    between atoms: C_12  and  S_14
REMARK    8  A    between atoms: S_14  and  C_17
REMARK                            x       y       z     vdW  Elec       q    Type
REMARK                         _______ _______ _______ _____ _____    ______ ____
ROOT
ATOM      1  N   UNL     1     -32.269 -13.394  15.522  0.00  0.00    -0.309 N 
ATOM      2  C   UNL     1     -32.364 -13.005  14.145  0.00  0.00    +0.238 C 
ATOM      3  O   UNL     1     -31.863 -13.737  13.246  0.00  0.00    -0.274 OA
ATOM      4  H   UNL     1     -32.742 -12.815  16.252  0.00  0.00    +0.149 HD
ENDROOT
BRANCH   2   5
ATOM      5  C   UNL     1     -33.048 -11.720  13.767  0.00  0.00    +0.218 C 
ATOM      6  C   UNL     1     -34.022 -11.949  12.609  0.00  0.00    +0.042 C 
BRANCH   5   7
ATOM      7  S   UNL     1     -33.893 -11.027  15.186  0.00  0.00    +0.008 S 
ATOM      8  O   UNL     1     -34.732 -12.088  15.843  0.00  0.00    -0.169 OA
ATOM      9  O   UNL     1     -34.794  -9.903  14.754  0.00  0.00    -0.169 OA
BRANCH   7  10
ATOM     10  C   UNL     1     -32.709 -10.429  16.346  0.00  0.00    +0.089 A 
ATOM     11  C   UNL     1     -31.383 -10.195  15.953  0.00  0.00    +0.030 A 
ATOM     12  C   UNL     1     -30.444  -9.740  16.883  0.00  0.00    +0.040 A 
ATOM     13  C   UNL     1     -30.825  -9.517  18.210  0.00  0.00    +0.124 A 
ATOM     14  F   UNL     1     -29.914  -9.076  19.112  0.00  0.00    -0.205 F 
ATOM     15  C   UNL     1     -32.144  -9.756  18.608  0.00  0.00    +0.040 A 
ATOM     16  C   UNL     1     -33.084 -10.213  17.679  0.00  0.00    +0.030 A 
ENDBRANCH   7  10
ENDBRANCH   5   7
ENDBRANCH   2   5
BRANCH   1  17
ATOM     17  C   UNL     1     -31.513 -14.567  15.954  0.00  0.00    +0.145 C 
BRANCH  17  24
ATOM     18  C   UNL     1     -30.672 -13.302  18.771  0.00  0.00    +0.069 C 
ATOM     19  C   UNL     1     -29.766 -13.643  17.634  0.00  0.00    +0.085 A 
ATOM     20  N   UNL     1     -28.441 -13.399  17.631  0.00  0.00    -0.083 NA
ATOM     21  O   UNL     1     -27.987 -13.769  16.467  0.00  0.00    -0.359 OA
ATOM     22  C   UNL     1     -28.952 -14.233  15.705  0.00  0.00    +0.139 A 
ATOM     23  C   UNL     1     -28.757 -14.731  14.311  0.00  0.00    +0.089 C 
ATOM     24  C   UNL     1     -30.138 -14.166  16.409  0.00  0.00    +0.034 A 
ENDBRANCH  17  24
ENDBRANCH   1  17
TORSDOF 5
ENDMDL
MODEL 4
REMARK VINA RESULT:    -3.751      2.519      4.439
REMARK INTER + INTRA:          -6.958
REMARK INTER:                  -4.728
REMARK INTRA:                  -2.230
REMARK UNBOUND:                -2.110
REMARK  Name = 
REMARK  8 active torsions:
REMARK  status: ('A' for Active; 'I' for Inactive)
REMARK    1  A    between atoms: C_1  and  C_2
REMARK    2  A    between atoms: C_5  and  C_6
REMARK    3  A    between atoms: C_7  and  C_8
REMARK    4  A    between atoms: C_8  and  N_9
REMARK    5  A    between atoms: C_10  and  C_12
REMARK    6  A    between atoms: C_12  and  C_13
REMARK    7  A    between atoms: C_12  and  S_14
REMARK    8  A    between atoms: S_14  and  C_17
REMARK                            x       y       z     vdW  Elec       q    Type
REMARK                         _______ _______ _______ _____ _____    ______ ____
ROOT
ATOM      1  N   UNL     1     -31.707 -10.323  19.265  0.00  0.00    -0.309 N 
ATOM      2  C   UNL     1     -30.373 -10.100  19.742  0.00  0.00    +0.238 C 
ATOM      3  O   UNL     1     -29.796  -8.999  19.515  0.00  0.00    -0.274 OA
ATOM      4  H   UNL     1     -32.198 -11.212  19.513  0.00  0.00    +0.149 HD
ENDROOT
BRANCH   2   5
ATOM      5  C   UNL     1     -29.650 -11.178  20.503  0.00  0.00    +0.218 C 
ATOM      6  C   UNL     1     -29.590 -10.836  21.993  0.00  0.00    +0.042 C 
BRANCH   5   7
ATOM      7  S   UNL     1     -30.447 -12.761  20.241  0.00  0.00    +0.008 S 
ATOM      8  O   UNL     1     -31.895 -12.669  20.635  0.00  0.00    -0.169 OA
ATOM      9  O   UNL     1     -29.788 -13.817  21.085  0.00  0.00    -0.169 OA
BRANCH   7  10
ATOM     10  C   UNL     1     -30.339 -13.203  18.540  0.00  0.00    +0.089 A 
ATOM     11  C   UNL     1     -31.489 -13.569  17.825  0.00  0.00    +0.030 A 
ATOM     12  C   UNL     1     -31.392 -13.937  16.480  0.00  0.00    +0.040 A 
ATOM     13  C   UNL     1     -30.147 -13.944  15.843  0.00  0.00    +0.124 A 
ATOM     14  F   UNL     1     -30.055 -14.302  14.539  0.00  0.00    -0.205 F 
ATOM     15  C   UNL     1     -28.997 -13.587  16.554  0.00  0.00    +0.040 A 
ATOM     16  C   UNL     1     -29.092 -13.219  17.900  0.00  0.00    +0.030 A 
ENDBRANCH   7  10
ENDBRANCH   5   7
ENDBRANCH   2   5
BRANCH   1  17
ATOM     17  C   UNL     1     -32.407  -9.360  18.420  0.00  0.00    +0.145 C 
BRANCH  17  24
ATOM     18  C   UNL     1     -35.048 -10.468  16.991  0.00  0.00    +0.069 C 
ATOM     19  C   UNL     1     -33.686 -10.348  16.390  0.00  0.00    +0.085 A 
ATOM     20  N   UNL     1     -33.376 -10.757  15.145  0.00  0.00    -0.083 NA
ATOM     21  O   UNL     1     -32.100 -10.552  14.982  0.00  0.00    -0.359 OA
ATOM     22  C   UNL     1     -31.558 -10.039  16.063  0.00  0.00    +0.139 A 
ATOM     23  C   UNL     1     -30.112  -9.694  16.197  0.00  0.00    +0.089 C 
ATOM     24  C   UNL     1     -32.542  -9.891  17.021  0.00  0.00    +0.034 A 
ENDBRANCH  17  24
ENDBRANCH   1  17
TORSDOF 5
ENDMDL
MODEL 5
REMARK VINA RESULT:    -3.707      3.693      5.327
REMARK INTER + INTRA:          -6.901
REMARK INTER:                  -5.832
REMARK INTRA:                  -1.068
REMARK UNBOUND:                -2.110
REMARK  Name = 
REMARK  8 active torsions:
REMARK  status: ('A' for Active; 'I' for Inactive)
REMARK    1  A    between atoms: C_1  and  C_2
REMARK    2  A    between atoms: C_5  and  C_6
REMARK    3  A    between atoms: C_7  and  C_8
REMARK    4  A    between atoms: C_8  and  N_9
REMARK    5  A    between atoms: C_10  and  C_12
REMARK    6  A    between atoms: C_12  and  C_13
REMARK    7  A    between atoms: C_12  and  S_14
REMARK    8  A    between atoms: S_14  and  C_17
REMARK                            x       y       z     vdW  Elec       q    Type
REMARK                         _______ _______ _______ _____ _____    ______ ____
ROOT
ATOM      1  N   UNL     1     -31.807 -12.526  13.600  0.00  0.00    -0.309 N 
ATOM      2  C   UNL     1     -33.202 -12.227  13.447  0.00  0.00    +0.238 C 
ATOM      3  O   UNL     1     -33.978 -13.081  12.933  0.00  0.00    -0.274 OA
ATOM      4  H   UNL     1     -31.186 -11.839  14.085  0.00  0.00    +0.149 HD
ENDROOT
BRANCH   2   5
ATOM      5  C   UNL     1     -33.743 -10.894  13.887  0.00  0.00    +0.218 C 
ATOM      6  C   UNL     1     -34.998 -10.535  13.089  0.00  0.00    +0.042 C 
BRANCH   5   7
ATOM      7  S   UNL     1     -34.085 -10.913  15.645  0.00  0.00    +0.008 S 
ATOM      8  O   UNL     1     -34.689 -12.236  16.028  0.00  0.00    -0.169 OA
ATOM      9  O   UNL     1     -35.061  -9.823  15.993  0.00  0.00    -0.169 OA
BRANCH   7  10
ATOM     10  C   UNL     1     -32.587 -10.682  16.541  0.00  0.00    +0.089 A 
ATOM     11  C   UNL     1     -32.466 -11.148  17.859  0.00  0.00    +0.030 A 
ATOM     12  C   UNL     1     -31.281 -10.943  18.570  0.00  0.00    +0.040 A 
ATOM     13  C   UNL     1     -30.211 -10.271  17.971  0.00  0.00    +0.124 A 
ATOM     14  F   UNL     1     -29.062 -10.073  18.662  0.00  0.00    -0.205 F 
ATOM     15  C   UNL     1     -30.329  -9.799  16.660  0.00  0.00    +0.040 A 
ATOM     16  C   UNL     1     -31.515 -10.002  15.947  0.00  0.00    +0.030 A 
ENDBRANCH   7  10
ENDBRANCH   5   7
ENDBRANCH   2   5
BRANCH   1  17
ATOM     17  C   UNL     1     -31.209 -13.753  13.083  0.00  0.00    +0.145 C 
BRANCH  17  24
ATOM     18  C   UNL     1     -28.192 -14.352  12.196  0.00  0.00    +0.069 C 
ATOM     19  C   UNL     1     -28.752 -14.422  13.579  0.00  0.00    +0.085 A 
ATOM     20  N   UNL     1     -28.044 -14.814  14.656  0.00  0.00    -0.083 NA
ATOM     21  O   UNL     1     -28.860 -14.808  15.672  0.00  0.00    -0.359 OA
ATOM     22  C   UNL     1     -30.068 -14.442  15.310  0.00  0.00    +0.139 A 
ATOM     23  C   UNL     1     -31.231 -14.341  16.241  0.00  0.00    +0.089 C 
ATOM     24  C   UNL     1     -30.062 -14.185  13.953  0.00  0.00    +0.034 A 
ENDBRANCH  17  24
ENDBRANCH   1  17
TORSDOF 5
ENDMDL
MODEL 6
REMARK VINA RESULT:    -3.700      2.554      4.889
REMARK INTER + INTRA:          -6.892
REMARK INTER:                  -5.203
REMARK INTRA:                  -1.689
REMARK UNBOUND:                -2.110
REMARK  Name = 
REMARK  8 active torsions:
REMARK  status: ('A' for Active; 'I' for Inactive)
REMARK    1  A    between atoms: C_1  and  C_2
REMARK    2  A    between atoms: C_5  and  C_6
REMARK    3  A    between atoms: C_7  and  C_8
REMARK    4  A    between atoms: C_8  and  N_9
REMARK    5  A    between atoms: C_10  and  C_12
REMARK    6  A    between atoms: C_12  and  C_13
REMARK    7  A    between atoms: C_12  and  S_14
REMARK    8  A    between atoms: S_14  and  C_17
REMARK                            x       y       z     vdW  Elec       q    Type
REMARK                         _______ _______ _______ _____ _____    ______ ____
ROOT
ATOM      1  N   UNL     1     -30.745 -10.159  18.479  0.00  0.00    -0.309 N 
ATOM      2  C   UNL     1     -29.351 -10.471  18.607  0.00  0.00    +0.238 C 
ATOM      3  O   UNL     1     -28.549 -10.176  17.677  0.00  0.00    -0.274 OA
ATOM      4  H   UNL     1     -31.388 -10.350  19.281  0.00  0.00    +0.149 HD
ENDROOT
BRANCH   2   5
ATOM      5  C   UNL     1     -28.840 -11.162  19.842  0.00  0.00    +0.218 C 
ATOM      6  C   UNL     1     -29.873 -11.083  20.968  0.00  0.00    +0.042 C 
BRANCH   5   7
ATOM      7  S   UNL     1     -28.423 -12.864  19.473  0.00  0.00    +0.008 S 
ATOM      8  O   UNL     1     -28.722 -13.728  20.667  0.00  0.00    -0.169 OA
ATOM      9  O   UNL     1     -26.959 -12.980  19.152  0.00  0.00    -0.169 OA
BRANCH   7  10
ATOM     10  C   UNL     1     -29.380 -13.423  18.103  0.00  0.00    +0.089 A 
ATOM     11  C   UNL     1     -30.727 -13.776  18.273  0.00  0.00    +0.030 A 
ATOM     12  C   UNL     1     -31.475 -14.236  17.185  0.00  0.00    +0.040 A 
ATOM     13  C   UNL     1     -30.881 -14.349  15.924  0.00  0.00    +0.124 A 
ATOM     14  F   UNL     1     -31.606 -14.797  14.870  0.00  0.00    -0.205 F 
ATOM     15  C   UNL     1     -29.536 -14.006  15.752  0.00  0.00    +0.040 A 
ATOM     16  C   UNL     1     -28.786 -13.545  16.839  0.00  0.00    +0.030 A 
ENDBRANCH   7  10
ENDBRANCH   5   7
ENDBRANCH   2   5
BRANCH   1  17
ATOM     17  C   UNL     1     -31.312  -9.601  17.255  0.00  0.00    +0.145 C 
BRANCH  17  24
ATOM     18  C   UNL     1     -31.977 -11.099  14.506  0.00  0.00    +0.069 C 
ATOM     19  C   UNL     1     -32.858 -10.995  15.708  0.00  0.00    +0.085 A 
ATOM     20  N   UNL     1     -34.110 -11.489  15.765  0.00  0.00    -0.083 NA
ATOM     21  O   UNL     1     -34.595 -11.167  16.931  0.00  0.00    -0.359 OA
ATOM     22  C   UNL     1     -33.725 -10.478  17.634  0.00  0.00    +0.139 A 
ATOM     23  C   UNL     1     -33.980  -9.957  19.010  0.00  0.00    +0.089 C 
ATOM     24  C   UNL     1     -32.575 -10.325  16.884  0.00  0.00    +0.034 A 
ENDBRANCH  17  24
ENDBRANCH   1  17
TORSDOF 5
ENDMDL
MODEL 7
REMARK VINA RESULT:    -3.700      2.721      4.933
REMARK INTER + INTRA:          -6.892
REMARK INTER:                  -5.327
REMARK INTRA:                  -1.565
REMARK UNBOUND:                -2.110
REMARK  Name = 
REMARK  8 active torsions:
REMARK  status: ('A' for Active; 'I' for Inactive)
REMARK    1  A    between atoms: C_1  and  C_2
REMARK    2  A    between atoms: C_5  and  C_6
REMARK    3  A    between atoms: C_7  and  C_8
REMARK    4  A    between atoms: C_8  and  N_9
REMARK    5  A    between atoms: C_10  and  C_12
REMARK    6  A    between atoms: C_12  and  C_13
REMARK    7  A    between atoms: C_12  and  S_14
REMARK    8  A    between atoms: S_14  and  C_17
REMARK                            x       y       z     vdW  Elec       q    Type
REMARK                         _______ _______ _______ _____ _____    ______ ____
ROOT
ATOM      1  N   UNL     1     -31.185 -10.185  17.956  0.00  0.00    -0.309 N 
ATOM      2  C   UNL     1     -29.811 -10.168  18.369  0.00  0.00    +0.238 C 
ATOM      3  O   UNL     1     -28.913  -9.802  17.560  0.00  0.00    -0.274 OA
ATOM      4  H   UNL     1     -31.926 -10.429  18.652  0.00  0.00    +0.149 HD
ENDROOT
BRANCH   2   5
ATOM      5  C   UNL     1     -29.433 -10.598  19.760  0.00  0.00    +0.218 C 
ATOM      6  C   UNL     1     -30.607 -10.399  20.721  0.00  0.00    +0.042 C 
BRANCH   5   7
ATOM      7  S   UNL     1     -28.892 -12.306  19.756  0.00  0.00    +0.008 S 
ATOM      8  O   UNL     1     -29.353 -12.985  21.016  0.00  0.00    -0.169 OA
ATOM      9  O   UNL     1     -27.391 -12.372  19.698  0.00  0.00    -0.169 OA
BRANCH   7  10
ATOM     10  C   UNL     1     -29.581 -13.141  18.366  0.00  0.00    +0.089 A 
ATOM     11  C   UNL     1     -28.835 -13.296  17.188  0.00  0.00    +0.030 A 
ATOM     12  C   UNL     1     -29.396 -13.943  16.082  0.00  0.00    +0.040 A 
ATOM     13  C   UNL     1     -30.702 -14.436  16.147  0.00  0.00    +0.124 A 
ATOM     14  F   UNL     1     -31.245 -15.062  15.075  0.00  0.00    -0.205 F 
ATOM     15  C   UNL     1     -31.452 -14.277  17.317  0.00  0.00    +0.040 A 
ATOM     16  C   UNL     1     -30.893 -13.629  18.424  0.00  0.00    +0.030 A 
ENDBRANCH   7  10
ENDBRANCH   5   7
ENDBRANCH   2   5
BRANCH   1  17
ATOM     17  C   UNL     1     -31.594  -9.895  16.585  0.00  0.00    +0.145 C 
BRANCH  17  24
ATOM     18  C   UNL     1     -34.311 -10.192  18.250  0.00  0.00    +0.069 C 
ATOM     19  C   UNL     1     -33.999 -10.806  16.924  0.00  0.00    +0.085 A 
ATOM     20  N   UNL     1     -34.831 -11.635  16.266  0.00  0.00    -0.083 NA
ATOM     21  O   UNL     1     -34.214 -12.018  15.185  0.00  0.00    -0.359 OA
ATOM     22  C   UNL     1     -33.015 -11.487  15.109  0.00  0.00    +0.139 A 
ATOM     23  C   UNL     1     -32.055 -11.734  13.992  0.00  0.00    +0.089 C 
ATOM     24  C   UNL     1     -32.813 -10.693  16.220  0.00  0.00    +0.034 A 
ENDBRANCH  17  24
ENDBRANCH   1  17
TORSDOF 5
ENDMDL
MODEL 8
REMARK VINA RESULT:    -3.699      2.707      4.434
REMARK INTER + INTRA:          -6.891
REMARK INTER:                  -5.320
REMARK INTRA:                  -1.571
REMARK UNBOUND:                -2.110
REMARK  Name = 
REMARK  8 active torsions:
REMARK  status: ('A' for Active; 'I' for Inactive)
REMARK    1  A    between atoms: C_1  and  C_2
REMARK    2  A    between atoms: C_5  and  C_6
REMARK    3  A    between atoms: C_7  and  C_8
REMARK    4  A    between atoms: C_8  and  N_9
REMARK    5  A    between atoms: C_10  and  C_12
REMARK    6  A    between atoms: C_12  and  C_13
REMARK    7  A    between atoms: C_12  and  S_14
REMARK    8  A    between atoms: S_14  and  C_17
REMARK                            x       y       z     vdW  Elec       q    Type
REMARK                         _______ _______ _______ _____ _____    ______ ____
ROOT
ATOM      1  N   UNL     1     -30.899 -10.540  18.468  0.00  0.00    -0.309 N 
ATOM      2  C   UNL     1     -31.332 -10.083  17.179  0.00  0.00    +0.238 C 
ATOM      3  O   UNL     1     -30.542  -9.432  16.441  0.00  0.00    -0.274 OA
ATOM      4  H   UNL     1     -31.540 -11.132  19.044  0.00  0.00    +0.149 HD
ENDROOT
BRANCH   2   5
ATOM      5  C   UNL     1     -32.732 -10.367  16.706  0.00  0.00    +0.218 C 
ATOM      6  C   UNL     1     -32.937  -9.839  15.285  0.00  0.00    +0.042 C 
BRANCH   5   7
ATOM      7  S   UNL     1     -33.070 -12.124  16.791  0.00  0.00    +0.008 S 
ATOM      8  O   UNL     1     -34.368 -12.424  16.092  0.00  0.00    -0.169 OA
ATOM      9  O   UNL     1     -33.188 -12.559  18.225  0.00  0.00    -0.169 OA
BRANCH   7  10
ATOM     10  C   UNL     1     -31.771 -13.015  16.001  0.00  0.00    +0.089 A 
ATOM     11  C   UNL     1     -30.802 -13.685  16.763  0.00  0.00    +0.030 A 
ATOM     12  C   UNL     1     -29.764 -14.373  16.129  0.00  0.00    +0.040 A 
ATOM     13  C   UNL     1     -29.687 -14.395  14.733  0.00  0.00    +0.124 A 
ATOM     14  F   UNL     1     -28.679 -15.062  14.120  0.00  0.00    -0.205 F 
ATOM     15  C   UNL     1     -30.647 -13.723  13.970  0.00  0.00    +0.040 A 
ATOM     16  C   UNL     1     -31.686 -13.033  14.602  0.00  0.00    +0.030 A 
ENDBRANCH   7  10
ENDBRANCH   5   7
ENDBRANCH   2   5
BRANCH   1  17
ATOM     17  C   UNL     1     -29.596 -10.189  19.024  0.00  0.00    +0.145 C 
BRANCH  17  24
ATOM     18  C   UNL     1     -26.833 -10.937  17.592  0.00  0.00    +0.069 C 
ATOM     19  C   UNL     1     -27.554 -11.739  18.625  0.00  0.00    +0.085 A 
ATOM     20  N   UNL     1     -27.146 -12.947  19.058  0.00  0.00    -0.083 NA
ATOM     21  O   UNL     1     -28.038 -13.371  19.907  0.00  0.00    -0.359 OA
ATOM     22  C   UNL     1     -29.016 -12.505  20.042  0.00  0.00    +0.139 A 
ATOM     23  C   UNL     1     -30.195 -12.700  20.937  0.00  0.00    +0.089 C 
ATOM     24  C   UNL     1     -28.761 -11.422  19.223  0.00  0.00    +0.034 A 
ENDBRANCH  17  24
ENDBRANCH   1  17
TORSDOF 5
ENDMDL
MODEL 9
REMARK VINA RESULT:    -3.622      1.924      2.669
REMARK INTER + INTRA:          -6.791
REMARK INTER:                  -4.929
REMARK INTRA:                  -1.862
REMARK UNBOUND:                -2.110
REMARK  Name = 
REMARK  8 active torsions:
REMARK  status: ('A' for Active; 'I' for Inactive)
REMARK    1  A    between atoms: C_1  and  C_2
REMARK    2  A    between atoms: C_5  and  C_6
REMARK    3  A    between atoms: C_7  and  C_8
REMARK    4  A    between atoms: C_8  and  N_9
REMARK    5  A    between atoms: C_10  and  C_12
REMARK    6  A    between atoms: C_12  and  C_13
REMARK    7  A    between atoms: C_12  and  S_14
REMARK    8  A    between atoms: S_14  and  C_17
REMARK                            x       y       z     vdW  Elec       q    Type
REMARK                         _______ _______ _______ _____ _____    ______ ____
ROOT
ATOM      1  N   UNL     1     -29.854 -12.685  18.469  0.00  0.00    -0.309 N 
ATOM      2  C   UNL     1     -30.429 -12.499  19.770  0.00  0.00    +0.238 C 
ATOM      3  O   UNL     1     -30.817 -13.498  20.437  0.00  0.00    -0.274 OA
ATOM      4  H   UNL     1     -29.478 -11.857  17.952  0.00  0.00    +0.149 HD
ENDROOT
BRANCH   2   5
ATOM      5  C   UNL     1     -30.582 -11.115  20.339  0.00  0.00    +0.218 C 
ATOM      6  C   UNL     1     -29.842 -10.997  21.673  0.00  0.00    +0.042 C 
BRANCH   5   7
ATOM      7  S   UNL     1     -29.991  -9.895  19.169  0.00  0.00    +0.008 S 
ATOM      8  O   UNL     1     -28.634 -10.297  18.661  0.00  0.00    -0.169 OA
ATOM      9  O   UNL     1     -29.874  -8.553  19.837  0.00  0.00    -0.169 OA
BRANCH   7  10
ATOM     10  C   UNL     1     -31.107  -9.789  17.810  0.00  0.00    +0.089 A 
ATOM     11  C   UNL     1     -32.462  -9.499  18.023  0.00  0.00    +0.030 A 
ATOM     12  C   UNL     1     -33.345  -9.436  16.941  0.00  0.00    +0.040 A 
ATOM     13  C   UNL     1     -32.880  -9.664  15.643  0.00  0.00    +0.124 A 
ATOM     14  F   UNL     1     -33.737  -9.604  14.594  0.00  0.00    -0.205 F 
ATOM     15  C   UNL     1     -31.531  -9.961  15.426  0.00  0.00    +0.040 A 
ATOM     16  C   UNL     1     -30.646 -10.025  16.507  0.00  0.00    +0.030 A 
ENDBRANCH   7  10
ENDBRANCH   5   7
ENDBRANCH   2   5
BRANCH   1  17
ATOM     17  C   UNL     1     -29.793 -13.991  17.820  0.00  0.00    +0.145 C 
BRANCH  17  24
ATOM     18  C   UNL     1     -28.504 -14.538  14.941  0.00  0.00    +0.069 C 
ATOM     19  C   UNL     1     -29.930 -14.205  15.238  0.00  0.00    +0.085 A 
ATOM     20  N   UNL     1     -30.873 -14.032  14.292  0.00  0.00    -0.083 NA
ATOM     21  O   UNL     1     -31.973 -13.699  14.905  0.00  0.00    -0.359 OA
ATOM     22  C   UNL     1     -31.792 -13.634  16.205  0.00  0.00    +0.139 A 
ATOM     23  C   UNL     1     -32.859 -13.272  17.185  0.00  0.00    +0.089 C 
ATOM     24  C   UNL     1     -30.476 -13.945  16.482  0.00  0.00    +0.034 A 
ENDBRANCH  17  24
ENDBRANCH   1  17
TORSDOF 5
ENDMDL
