MODEL 1
REMARK VINA RESULT:    -4.584      0.000      0.000
REMARK INTER + INTRA:          -7.761
REMARK INTER:                  -5.924
REMARK INTRA:                  -1.836
REMARK UNBOUND:                -1.836
REMARK  Name = 
REMARK  6 active torsions:
REMARK  status: ('A' for Active; 'I' for Inactive)
REMARK    1  A    between atoms: C_1  and  C_2
REMARK    2  A    between atoms: C_2  and  C_3
REMARK    3  A    between atoms: N_5  and  C_6
REMARK    4  A    between atoms: C_9  and  S_12
REMARK    5  A    between atoms: S_12  and  N_15
REMARK    6  A    between atoms: C_19  and  C_21
REMARK                            x       y       z     vdW  Elec       q    Type
REMARK                         _______ _______ _______ _____ _____    ______ ____
ROOT
ATOM      1  S   UNL     1     -30.924 -10.125  21.145  0.00  0.00    +0.061 S 
ATOM      2  O   UNL     1     -31.923 -10.871  21.986  0.00  0.00    -0.153 OA
ATOM      3  O   UNL     1     -29.809  -9.661  22.040  0.00  0.00    -0.153 OA
ENDROOT
BRANCH   1   7
ATOM      4  C   UNL     1     -29.322 -12.982  17.950  0.00  0.00    +0.033 A 
ATOM      5  C   UNL     1     -28.670 -11.761  18.199  0.00  0.00    +0.025 A 
ATOM      6  C   UNL     1     -29.155 -10.889  19.178  0.00  0.00    +0.030 A 
ATOM      7  C   UNL     1     -30.289 -11.230  19.929  0.00  0.00    +0.106 A 
ATOM      8  C   UNL     1     -30.931 -12.452  19.694  0.00  0.00    +0.030 A 
ATOM      9  C   UNL     1     -30.444 -13.326  18.717  0.00  0.00    +0.025 A 
BRANCH   4  12
ATOM     10  C   UNL     1     -29.555 -14.294  15.788  0.00  0.00    +0.217 C 
ATOM     11  O   UNL     1     -30.774 -13.999  15.659  0.00  0.00    -0.275 OA
ATOM     12  N   UNL     1     -28.829 -13.908  16.966  0.00  0.00    -0.286 N 
ATOM     13  H   UNL     1     -27.921 -14.388  17.157  0.00  0.00    +0.155 HD
BRANCH  10  15
ATOM     14  C   UNL     1     -29.233 -14.497  13.334  0.00  0.00    +0.013 C 
ATOM     15  C   UNL     1     -28.865 -15.061  14.701  0.00  0.00    +0.093 C 
ENDBRANCH  10  15
ENDBRANCH   4  12
ENDBRANCH   1   7
BRANCH   1  16
ATOM     16  N   UNL     1     -31.717  -8.760  20.384  0.00  0.00    -0.172 NA
ATOM     17  C   UNL     1     -33.062  -8.524  20.938  0.00  0.00    +0.137 C 
ATOM     18  C   UNL     1     -34.082  -9.588  20.473  0.00  0.00    +0.178 C 
ATOM     19  O   UNL     1     -33.675 -10.298  19.315  0.00  0.00    -0.369 OA
ATOM     20  C   UNL     1     -33.090  -9.419  18.375  0.00  0.00    +0.164 C 
ATOM     21  C   UNL     1     -31.736  -8.890  18.911  0.00  0.00    +0.146 C 
BRANCH  20  22
ATOM     22  C   UNL     1     -32.894 -10.139  17.059  0.00  0.00    -0.018 A 
ATOM     23  C   UNL     1     -33.864 -11.041  16.586  0.00  0.00    +0.007 A 
ATOM     24  C   UNL     1     -33.662 -11.730  15.385  0.00  0.00    +0.020 A 
ATOM     25  C   UNL     1     -32.488 -11.531  14.651  0.00  0.00    +0.041 A 
ATOM     26 CL   UNL     1     -32.238 -12.397  13.147  0.00  0.00    -0.084 Cl
ATOM     27  C   UNL     1     -31.513 -10.649  15.123  0.00  0.00    +0.020 A 
ATOM     28  C   UNL     1     -31.710  -9.960  16.323  0.00  0.00    +0.007 A 
ENDBRANCH  20  22
ENDBRANCH   1  16
TORSDOF 5
ENDMDL
MODEL 2
REMARK VINA RESULT:    -4.574      2.383      3.272
REMARK INTER + INTRA:          -7.747
REMARK INTER:                  -6.070
REMARK INTRA:                  -1.677
REMARK UNBOUND:                -1.836
REMARK  Name = 
REMARK  6 active torsions:
REMARK  status: ('A' for Active; 'I' for Inactive)
REMARK    1  A    between atoms: C_1  and  C_2
REMARK    2  A    between atoms: C_2  and  C_3
REMARK    3  A    between atoms: N_5  and  C_6
REMARK    4  A    between atoms: C_9  and  S_12
REMARK    5  A    between atoms: S_12  and  N_15
REMARK    6  A    between atoms: C_19  and  C_21
REMARK                            x       y       z     vdW  Elec       q    Type
REMARK                         _______ _______ _______ _____ _____    ______ ____
ROOT
ATOM      1  S   UNL     1     -28.899 -13.066  19.985  0.00  0.00    +0.061 S 
ATOM      2  O   UNL     1     -29.719 -13.739  21.052  0.00  0.00    -0.153 OA
ATOM      3  O   UNL     1     -27.517 -13.657  20.011  0.00  0.00    -0.153 OA
ENDROOT
BRANCH   1   7
ATOM      4  C   UNL     1     -30.826 -13.948  15.929  0.00  0.00    +0.033 A 
ATOM      5  C   UNL     1     -31.598 -13.992  17.105  0.00  0.00    +0.025 A 
ATOM      6  C   UNL     1     -31.011 -13.719  18.344  0.00  0.00    +0.030 A 
ATOM      7  C   UNL     1     -29.652 -13.385  18.424  0.00  0.00    +0.106 A 
ATOM      8  C   UNL     1     -28.886 -13.324  17.255  0.00  0.00    +0.030 A 
ATOM      9  C   UNL     1     -29.472 -13.594  16.014  0.00  0.00    +0.025 A 
BRANCH   4  12
ATOM     10  C   UNL     1     -31.684 -13.181  13.666  0.00  0.00    +0.217 C 
ATOM     11  O   UNL     1     -31.623 -11.960  13.978  0.00  0.00    -0.275 OA
ATOM     12  N   UNL     1     -31.410 -14.200  14.640  0.00  0.00    -0.286 N 
ATOM     13  H   UNL     1     -31.724 -15.174  14.426  0.00  0.00    +0.155 HD
BRANCH  10  15
ATOM     14  C   UNL     1     -33.466 -13.094  11.938  0.00  0.00    +0.013 C 
ATOM     15  C   UNL     1     -32.054 -13.563  12.264  0.00  0.00    +0.093 C 
ENDBRANCH  10  15
ENDBRANCH   4  12
ENDBRANCH   1   7
BRANCH   1  16
ATOM     16  N   UNL     1     -28.844 -11.344  20.303  0.00  0.00    -0.172 NA
ATOM     17  C   UNL     1     -29.401 -11.008  21.625  0.00  0.00    +0.137 C 
ATOM     18  C   UNL     1     -30.942 -11.133  21.660  0.00  0.00    +0.178 C 
ATOM     19  O   UNL     1     -31.543 -11.115  20.376  0.00  0.00    -0.369 OA
ATOM     20  C   UNL     1     -30.930 -10.141  19.555  0.00  0.00    +0.164 C 
ATOM     21  C   UNL     1     -29.479 -10.566  19.217  0.00  0.00    +0.146 C 
BRANCH  20  22
ATOM     22  C   UNL     1     -31.738  -9.961  18.290  0.00  0.00    -0.018 A 
ATOM     23  C   UNL     1     -33.130 -10.161  18.295  0.00  0.00    +0.007 A 
ATOM     24  C   UNL     1     -33.868 -10.026  17.115  0.00  0.00    +0.020 A 
ATOM     25  C   UNL     1     -33.223  -9.699  15.917  0.00  0.00    +0.041 A 
ATOM     26 CL   UNL     1     -34.151  -9.531  14.439  0.00  0.00    -0.084 Cl
ATOM     27  C   UNL     1     -31.838  -9.514  15.901  0.00  0.00    +0.020 A 
ATOM     28  C   UNL     1     -31.097  -9.650  17.078  0.00  0.00    +0.007 A 
ENDBRANCH  20  22
ENDBRANCH   1  16
TORSDOF 5
ENDMDL
MODEL 3
REMARK VINA RESULT:    -4.315      2.263      4.237
REMARK INTER + INTRA:          -7.413
REMARK INTER:                  -5.649
REMARK INTRA:                  -1.764
REMARK UNBOUND:                -1.836
REMARK  Name = 
REMARK  6 active torsions:
REMARK  status: ('A' for Active; 'I' for Inactive)
REMARK    1  A    between atoms: C_1  and  C_2
REMARK    2  A    between atoms: C_2  and  C_3
REMARK    3  A    between atoms: N_5  and  C_6
REMARK    4  A    between atoms: C_9  and  S_12
REMARK    5  A    between atoms: S_12  and  N_15
REMARK    6  A    between atoms: C_19  and  C_21
REMARK                            x       y       z     vdW  Elec       q    Type
REMARK                         _______ _______ _______ _____ _____    ______ ____
ROOT
ATOM      1  S   UNL     1     -32.962  -9.495  19.963  0.00  0.00    +0.061 S 
ATOM      2  O   UNL     1     -31.883  -8.451  20.054  0.00  0.00    -0.153 OA
ATOM      3  O   UNL     1     -34.231  -8.908  20.516  0.00  0.00    -0.153 OA
ENDROOT
BRANCH   1   7
ATOM      4  C   UNL     1     -33.597 -10.529  15.551  0.00  0.00    +0.033 A 
ATOM      5  C   UNL     1     -32.423  -9.872  15.963  0.00  0.00    +0.025 A 
ATOM      6  C   UNL     1     -32.226  -9.559  17.311  0.00  0.00    +0.030 A 
ATOM      7  C   UNL     1     -33.190  -9.910  18.266  0.00  0.00    +0.106 A 
ATOM      8  C   UNL     1     -34.352 -10.578  17.861  0.00  0.00    +0.030 A 
ATOM      9  C   UNL     1     -34.549 -10.894  16.513  0.00  0.00    +0.025 A 
BRANCH   4  12
ATOM     10  C   UNL     1     -32.933 -11.722  13.410  0.00  0.00    +0.217 C 
ATOM     11  O   UNL     1     -31.791 -12.026  13.851  0.00  0.00    -0.275 OA
ATOM     12  N   UNL     1     -33.813 -10.884  14.174  0.00  0.00    -0.286 N 
ATOM     13  H   UNL     1     -34.620 -10.444  13.675  0.00  0.00    +0.155 HD
BRANCH  10  15
ATOM     14  C   UNL     1     -33.026 -13.720  11.938  0.00  0.00    +0.013 C 
ATOM     15  C   UNL     1     -33.365 -12.241  12.072  0.00  0.00    +0.093 C 
ENDBRANCH  10  15
ENDBRANCH   4  12
ENDBRANCH   1   7
BRANCH   1  16
ATOM     16  N   UNL     1     -32.479 -10.905  20.883  0.00  0.00    -0.172 NA
ATOM     17  C   UNL     1     -31.322 -10.627  21.753  0.00  0.00    +0.137 C 
ATOM     18  C   UNL     1     -30.006 -10.492  20.952  0.00  0.00    +0.178 C 
ATOM     19  O   UNL     1     -30.067 -11.068  19.657  0.00  0.00    -0.369 OA
ATOM     20  C   UNL     1     -30.750 -12.305  19.696  0.00  0.00    +0.164 C 
ATOM     21  C   UNL     1     -32.249 -12.076  20.010  0.00  0.00    +0.146 C 
BRANCH  20  22
ATOM     22  C   UNL     1     -30.587 -13.016  18.372  0.00  0.00    -0.018 A 
ATOM     23  C   UNL     1     -29.318 -13.148  17.780  0.00  0.00    +0.007 A 
ATOM     24  C   UNL     1     -29.178 -13.777  16.539  0.00  0.00    +0.020 A 
ATOM     25  C   UNL     1     -30.303 -14.272  15.873  0.00  0.00    +0.041 A 
ATOM     26 CL   UNL     1     -30.125 -15.060  14.316  0.00  0.00    -0.084 Cl
ATOM     27  C   UNL     1     -31.570 -14.131  16.446  0.00  0.00    +0.020 A 
ATOM     28  C   UNL     1     -31.714 -13.502  17.685  0.00  0.00    +0.007 A 
ENDBRANCH  20  22
ENDBRANCH   1  16
TORSDOF 5
ENDMDL
MODEL 4
REMARK VINA RESULT:    -4.260      2.387      3.366
REMARK INTER + INTRA:          -7.341
REMARK INTER:                  -6.540
REMARK INTRA:                  -0.801
REMARK UNBOUND:                -1.836
REMARK  Name = 
REMARK  6 active torsions:
REMARK  status: ('A' for Active; 'I' for Inactive)
REMARK    1  A    between atoms: C_1  and  C_2
REMARK    2  A    between atoms: C_2  and  C_3
REMARK    3  A    between atoms: N_5  and  C_6
REMARK    4  A    between atoms: C_9  and  S_12
REMARK    5  A    between atoms: S_12  and  N_15
REMARK    6  A    between atoms: C_19  and  C_21
REMARK                            x       y       z     vdW  Elec       q    Type
REMARK                         _______ _______ _______ _____ _____    ______ ____
ROOT
ATOM      1  S   UNL     1     -32.785  -9.675  20.374  0.00  0.00    +0.061 S 
ATOM      2  O   UNL     1     -34.073 -10.308  19.925  0.00  0.00    -0.153 OA
ATOM      3  O   UNL     1     -33.024  -9.012  21.702  0.00  0.00    -0.153 OA
ENDROOT
BRANCH   1   7
ATOM      4  C   UNL     1     -29.664 -12.980  20.898  0.00  0.00    +0.033 A 
ATOM      5  C   UNL     1     -30.834 -13.222  20.157  0.00  0.00    +0.025 A 
ATOM      6  C   UNL     1     -31.787 -12.212  19.992  0.00  0.00    +0.030 A 
ATOM      7  C   UNL     1     -31.577 -10.945  20.553  0.00  0.00    +0.106 A 
ATOM      8  C   UNL     1     -30.405 -10.696  21.278  0.00  0.00    +0.030 A 
ATOM      9  C   UNL     1     -29.451 -11.705  21.442  0.00  0.00    +0.025 A 
BRANCH   4  12
ATOM     10  C   UNL     1     -27.393 -13.992  20.380  0.00  0.00    +0.217 C 
ATOM     11  O   UNL     1     -27.181 -13.199  19.422  0.00  0.00    -0.275 OA
ATOM     12  N   UNL     1     -28.657 -13.993  21.063  0.00  0.00    -0.286 N 
ATOM     13  H   UNL     1     -28.888 -14.823  21.656  0.00  0.00    +0.155 HD
BRANCH  10  15
ATOM     14  C   UNL     1     -24.940 -14.316  20.591  0.00  0.00    +0.013 C 
ATOM     15  C   UNL     1     -26.313 -14.942  20.801  0.00  0.00    +0.093 C 
ENDBRANCH  10  15
ENDBRANCH   4  12
ENDBRANCH   1   7
BRANCH   1  16
ATOM     16  N   UNL     1     -32.273  -8.502  19.177  0.00  0.00    -0.172 NA
ATOM     17  C   UNL     1     -33.378  -7.619  18.762  0.00  0.00    +0.137 C 
ATOM     18  C   UNL     1     -34.398  -8.345  17.855  0.00  0.00    +0.178 C 
ATOM     19  O   UNL     1     -33.888  -9.526  17.258  0.00  0.00    -0.369 OA
ATOM     20  C   UNL     1     -32.562  -9.324  16.811  0.00  0.00    +0.164 C 
ATOM     21  C   UNL     1     -31.613  -9.149  18.023  0.00  0.00    +0.146 C 
BRANCH  20  22
ATOM     22  C   UNL     1     -32.127 -10.496  15.961  0.00  0.00    -0.018 A 
ATOM     23  C   UNL     1     -32.785 -10.787  14.752  0.00  0.00    +0.007 A 
ATOM     24  C   UNL     1     -32.401 -11.892  13.987  0.00  0.00    +0.020 A 
ATOM     25  C   UNL     1     -31.364 -12.723  14.425  0.00  0.00    +0.041 A 
ATOM     26 CL   UNL     1     -30.886 -14.109  13.463  0.00  0.00    -0.084 Cl
ATOM     27  C   UNL     1     -30.717 -12.450  15.633  0.00  0.00    +0.020 A 
ATOM     28  C   UNL     1     -31.099 -11.347  16.401  0.00  0.00    +0.007 A 
ENDBRANCH  20  22
ENDBRANCH   1  16
TORSDOF 5
ENDMDL
MODEL 5
REMARK VINA RESULT:    -4.142      2.962      4.732
REMARK INTER + INTRA:          -7.189
REMARK INTER:                  -5.651
REMARK INTRA:                  -1.539
REMARK UNBOUND:                -1.836
REMARK  Name = 
REMARK  6 active torsions:
REMARK  status: ('A' for Active; 'I' for Inactive)
REMARK    1  A    between atoms: C_1  and  C_2
REMARK    2  A    between atoms: C_2  and  C_3
REMARK    3  A    between atoms: N_5  and  C_6
REMARK    4  A    between atoms: C_9  and  S_12
REMARK    5  A    between atoms: S_12  and  N_15
REMARK    6  A    between atoms: C_19  and  C_21
REMARK                            x       y       z     vdW  Elec       q    Type
REMARK                         _______ _______ _______ _____ _____    ______ ____
ROOT
ATOM      1  S   UNL     1     -27.988 -11.949  18.786  0.00  0.00    +0.061 S 
ATOM      2  O   UNL     1     -27.714 -13.418  18.617  0.00  0.00    -0.153 OA
ATOM      3  O   UNL     1     -26.717 -11.198  18.500  0.00  0.00    -0.153 OA
ENDROOT
BRANCH   1   7
ATOM      4  C   UNL     1     -31.253 -10.746  15.813  0.00  0.00    +0.033 A 
ATOM      5  C   UNL     1     -30.487  -9.761  16.462  0.00  0.00    +0.025 A 
ATOM      6  C   UNL     1     -29.487 -10.126  17.367  0.00  0.00    +0.030 A 
ATOM      7  C   UNL     1     -29.228 -11.480  17.625  0.00  0.00    +0.106 A 
ATOM      8  C   UNL     1     -29.977 -12.463  16.969  0.00  0.00    +0.030 A 
ATOM      9  C   UNL     1     -30.977 -12.099  16.061  0.00  0.00    +0.025 A 
BRANCH   4  12
ATOM     10  C   UNL     1     -33.642 -10.813  14.957  0.00  0.00    +0.217 C 
ATOM     11  O   UNL     1     -33.989 -11.697  15.787  0.00  0.00    -0.275 OA
ATOM     12  N   UNL     1     -32.271 -10.398  14.859  0.00  0.00    -0.286 N 
ATOM     13  H   UNL     1     -31.981  -9.876  14.001  0.00  0.00    +0.155 HD
BRANCH  10  15
ATOM     14  C   UNL     1     -34.893  -8.734  14.426  0.00  0.00    +0.013 C 
ATOM     15  C   UNL     1     -34.677 -10.198  14.064  0.00  0.00    +0.093 C 
ENDBRANCH  10  15
ENDBRANCH   4  12
ENDBRANCH   1   7
BRANCH   1  16
ATOM     16  N   UNL     1     -28.531 -11.649  20.424  0.00  0.00    -0.172 NA
ATOM     17  C   UNL     1     -28.932 -12.891  21.109  0.00  0.00    +0.137 C 
ATOM     18  C   UNL     1     -30.280 -13.439  20.585  0.00  0.00    +0.178 C 
ATOM     19  O   UNL     1     -31.059 -12.473  19.900  0.00  0.00    -0.369 OA
ATOM     20  C   UNL     1     -31.013 -11.231  20.573  0.00  0.00    +0.164 C 
ATOM     21  C   UNL     1     -29.593 -10.621  20.469  0.00  0.00    +0.146 C 
BRANCH  20  22
ATOM     22  C   UNL     1     -32.038 -10.292  19.978  0.00  0.00    -0.018 A 
ATOM     23  C   UNL     1     -33.137 -10.795  19.258  0.00  0.00    +0.007 A 
ATOM     24  C   UNL     1     -34.064  -9.921  18.681  0.00  0.00    +0.020 A 
ATOM     25  C   UNL     1     -33.899  -8.538  18.809  0.00  0.00    +0.041 A 
ATOM     26 CL   UNL     1     -35.062  -7.445  18.084  0.00  0.00    -0.084 Cl
ATOM     27  C   UNL     1     -32.801  -8.030  19.510  0.00  0.00    +0.020 A 
ATOM     28  C   UNL     1     -31.872  -8.900  20.086  0.00  0.00    +0.007 A 
ENDBRANCH  20  22
ENDBRANCH   1  16
TORSDOF 5
ENDMDL
MODEL 6
REMARK VINA RESULT:    -3.819      2.337      4.742
REMARK INTER + INTRA:          -6.772
REMARK INTER:                  -5.250
REMARK INTRA:                  -1.522
REMARK UNBOUND:                -1.836
REMARK  Name = 
REMARK  6 active torsions:
REMARK  status: ('A' for Active; 'I' for Inactive)
REMARK    1  A    between atoms: C_1  and  C_2
REMARK    2  A    between atoms: C_2  and  C_3
REMARK    3  A    between atoms: N_5  and  C_6
REMARK    4  A    between atoms: C_9  and  S_12
REMARK    5  A    between atoms: S_12  and  N_15
REMARK    6  A    between atoms: C_19  and  C_21
REMARK                            x       y       z     vdW  Elec       q    Type
REMARK                         _______ _______ _______ _____ _____    ______ ____
ROOT
ATOM      1  S   UNL     1     -30.813 -10.618  20.376  0.00  0.00    +0.061 S 
ATOM      2  O   UNL     1     -29.435 -10.020  20.314  0.00  0.00    -0.153 OA
ATOM      3  O   UNL     1     -31.557  -9.969  21.510  0.00  0.00    -0.153 OA
ENDROOT
BRANCH   1   7
ATOM      4  C   UNL     1     -32.929  -9.785  16.405  0.00  0.00    +0.033 A 
ATOM      5  C   UNL     1     -33.679 -10.055  17.564  0.00  0.00    +0.025 A 
ATOM      6  C   UNL     1     -33.034 -10.306  18.779  0.00  0.00    +0.030 A 
ATOM      7  C   UNL     1     -31.635 -10.276  18.855  0.00  0.00    +0.106 A 
ATOM      8  C   UNL     1     -30.886  -9.992  17.707  0.00  0.00    +0.030 A 
ATOM      9  C   UNL     1     -31.530  -9.738  16.492  0.00  0.00    +0.025 A 
BRANCH   4  12
ATOM     10  C   UNL     1     -34.211 -10.488  14.329  0.00  0.00    +0.217 C 
ATOM     11  O   UNL     1     -34.065 -11.718  14.570  0.00  0.00    -0.275 OA
ATOM     12  N   UNL     1     -33.567  -9.500  15.148  0.00  0.00    -0.286 N 
ATOM     13  H   UNL     1     -33.492  -8.529  14.769  0.00  0.00    +0.155 HD
BRANCH  10  15
ATOM     14  C   UNL     1     -34.789 -10.941  11.956  0.00  0.00    +0.013 C 
ATOM     15  C   UNL     1     -35.062 -10.063  13.171  0.00  0.00    +0.093 C 
ENDBRANCH  10  15
ENDBRANCH   4  12
ENDBRANCH   1   7
BRANCH   1  16
ATOM     16  N   UNL     1     -30.681 -12.346  20.630  0.00  0.00    -0.172 NA
ATOM     17  C   UNL     1     -29.363 -12.725  21.172  0.00  0.00    +0.137 C 
ATOM     18  C   UNL     1     -28.244 -12.628  20.110  0.00  0.00    +0.178 C 
ATOM     19  O   UNL     1     -28.724 -12.624  18.777  0.00  0.00    -0.369 OA
ATOM     20  C   UNL     1     -29.767 -13.565  18.622  0.00  0.00    +0.164 C 
ATOM     21  C   UNL     1     -31.020 -13.107  19.408  0.00  0.00    +0.146 C 
BRANCH  20  22
ATOM     22  C   UNL     1     -30.092 -13.728  17.154  0.00  0.00    -0.018 A 
ATOM     23  C   UNL     1     -29.067 -13.924  16.211  0.00  0.00    +0.007 A 
ATOM     24  C   UNL     1     -29.370 -14.040  14.851  0.00  0.00    +0.020 A 
ATOM     25  C   UNL     1     -30.697 -13.951  14.418  0.00  0.00    +0.041 A 
ATOM     26 CL   UNL     1     -31.074 -14.095  12.711  0.00  0.00    -0.084 Cl
ATOM     27  C   UNL     1     -31.719 -13.739  15.346  0.00  0.00    +0.020 A 
ATOM     28  C   UNL     1     -31.420 -13.622  16.706  0.00  0.00    +0.007 A 
ENDBRANCH  20  22
ENDBRANCH   1  16
TORSDOF 5
ENDMDL
MODEL 7
REMARK VINA RESULT:    -3.815      2.536      4.477
REMARK INTER + INTRA:          -6.767
REMARK INTER:                  -5.258
REMARK INTRA:                  -1.509
REMARK UNBOUND:                -1.836
REMARK  Name = 
REMARK  6 active torsions:
REMARK  status: ('A' for Active; 'I' for Inactive)
REMARK    1  A    between atoms: C_1  and  C_2
REMARK    2  A    between atoms: C_2  and  C_3
REMARK    3  A    between atoms: N_5  and  C_6
REMARK    4  A    between atoms: C_9  and  S_12
REMARK    5  A    between atoms: S_12  and  N_15
REMARK    6  A    between atoms: C_19  and  C_21
REMARK                            x       y       z     vdW  Elec       q    Type
REMARK                         _______ _______ _______ _____ _____    ______ ____
ROOT
ATOM      1  S   UNL     1     -33.555  -8.597  18.479  0.00  0.00    +0.061 S 
ATOM      2  O   UNL     1     -32.691  -7.399  18.764  0.00  0.00    -0.153 OA
ATOM      3  O   UNL     1     -34.713  -8.149  17.631  0.00  0.00    -0.153 OA
ENDROOT
BRANCH   1   7
ATOM      4  C   UNL     1     -31.034 -11.684  16.230  0.00  0.00    +0.033 A 
ATOM      5  C   UNL     1     -32.437 -11.783  16.235  0.00  0.00    +0.025 A 
ATOM      6  C   UNL     1     -33.209 -10.838  16.918  0.00  0.00    +0.030 A 
ATOM      7  C   UNL     1     -32.591  -9.776  17.593  0.00  0.00    +0.106 A 
ATOM      8  C   UNL     1     -31.196  -9.666  17.577  0.00  0.00    +0.030 A 
ATOM      9  C   UNL     1     -30.423 -10.609  16.891  0.00  0.00    +0.025 A 
BRANCH   4  12
ATOM     10  C   UNL     1     -29.981 -13.978  15.947  0.00  0.00    +0.217 C 
ATOM     11  O   UNL     1     -30.310 -14.349  17.107  0.00  0.00    -0.275 OA
ATOM     12  N   UNL     1     -30.218 -12.628  15.516  0.00  0.00    -0.286 N 
ATOM     13  H   UNL     1     -29.704 -12.291  14.671  0.00  0.00    +0.155 HD
BRANCH  10  15
ATOM     14  C   UNL     1     -29.476 -14.500  13.573  0.00  0.00    +0.013 C 
ATOM     15  C   UNL     1     -29.332 -14.958  15.019  0.00  0.00    +0.093 C 
ENDBRANCH  10  15
ENDBRANCH   4  12
ENDBRANCH   1   7
BRANCH   1  16
ATOM     16  N   UNL     1     -34.118  -9.274  19.993  0.00  0.00    -0.172 NA
ATOM     17  C   UNL     1     -34.123  -8.275  21.077  0.00  0.00    +0.137 C 
ATOM     18  C   UNL     1     -32.695  -7.938  21.568  0.00  0.00    +0.178 C 
ATOM     19  O   UNL     1     -31.729  -8.916  21.220  0.00  0.00    -0.369 OA
ATOM     20  C   UNL     1     -32.251 -10.217  21.401  0.00  0.00    +0.164 C 
ATOM     21  C   UNL     1     -33.366 -10.493  20.362  0.00  0.00    +0.146 C 
BRANCH  20  22
ATOM     22  C   UNL     1     -31.140 -11.234  21.270  0.00  0.00    -0.018 A 
ATOM     23  C   UNL     1     -29.928 -11.062  21.962  0.00  0.00    +0.007 A 
ATOM     24  C   UNL     1     -28.890 -11.988  21.811  0.00  0.00    +0.020 A 
ATOM     25  C   UNL     1     -29.050 -13.088  20.962  0.00  0.00    +0.041 A 
ATOM     26 CL   UNL     1     -27.747 -14.247  20.773  0.00  0.00    -0.084 Cl
ATOM     27  C   UNL     1     -30.246 -13.257  20.259  0.00  0.00    +0.020 A 
ATOM     28  C   UNL     1     -31.284 -12.333  20.406  0.00  0.00    +0.007 A 
ENDBRANCH  20  22
ENDBRANCH   1  16
TORSDOF 5
ENDMDL
MODEL 8
REMARK VINA RESULT:    -3.592      3.560      5.486
REMARK INTER + INTRA:          -6.478
REMARK INTER:                  -5.830
REMARK INTRA:                  -0.648
REMARK UNBOUND:                -1.836
REMARK  Name = 
REMARK  6 active torsions:
REMARK  status: ('A' for Active; 'I' for Inactive)
REMARK    1  A    between atoms: C_1  and  C_2
REMARK    2  A    between atoms: C_2  and  C_3
REMARK    3  A    between atoms: N_5  and  C_6
REMARK    4  A    between atoms: C_9  and  S_12
REMARK    5  A    between atoms: S_12  and  N_15
REMARK    6  A    between atoms: C_19  and  C_21
REMARK                            x       y       z     vdW  Elec       q    Type
REMARK                         _______ _______ _______ _____ _____    ______ ____
ROOT
ATOM      1  S   UNL     1     -32.050 -11.897  14.758  0.00  0.00    +0.061 S 
ATOM      2  O   UNL     1     -31.641 -10.470  14.517  0.00  0.00    -0.153 OA
ATOM      3  O   UNL     1     -31.676 -12.704  13.546  0.00  0.00    -0.153 OA
ENDROOT
BRANCH   1   7
ATOM      4  C   UNL     1     -29.724 -13.468  18.372  0.00  0.00    +0.033 A 
ATOM      5  C   UNL     1     -29.815 -12.085  18.135  0.00  0.00    +0.025 A 
ATOM      6  C   UNL     1     -30.528 -11.603  17.034  0.00  0.00    +0.030 A 
ATOM      7  C   UNL     1     -31.172 -12.494  16.164  0.00  0.00    +0.106 A 
ATOM      8  C   UNL     1     -31.097 -13.871  16.406  0.00  0.00    +0.030 A 
ATOM      9  C   UNL     1     -30.386 -14.354  17.509  0.00  0.00    +0.025 A 
BRANCH   4  12
ATOM     10  C   UNL     1     -27.672 -13.627  19.859  0.00  0.00    +0.217 C 
ATOM     11  O   UNL     1     -26.950 -12.981  19.052  0.00  0.00    -0.275 OA
ATOM     12  N   UNL     1     -29.017 -13.989  19.511  0.00  0.00    -0.286 N 
ATOM     13  H   UNL     1     -29.482 -14.736  20.077  0.00  0.00    +0.155 HD
BRANCH  10  15
ATOM     14  C   UNL     1     -25.652 -14.439  21.055  0.00  0.00    +0.013 C 
ATOM     15  C   UNL     1     -27.111 -14.021  21.192  0.00  0.00    +0.093 C 
ENDBRANCH  10  15
ENDBRANCH   4  12
ENDBRANCH   1   7
BRANCH   1  16
ATOM     16  N   UNL     1     -33.778 -11.961  15.038  0.00  0.00    -0.172 NA
ATOM     17  C   UNL     1     -34.529 -11.175  14.042  0.00  0.00    +0.137 C 
ATOM     18  C   UNL     1     -34.381  -9.653  14.266  0.00  0.00    +0.178 C 
ATOM     19  O   UNL     1     -33.946  -9.310  15.571  0.00  0.00    -0.369 OA
ATOM     20  C   UNL     1     -34.599 -10.108  16.538  0.00  0.00    +0.164 C 
ATOM     21  C   UNL     1     -34.123 -11.577  16.424  0.00  0.00    +0.146 C 
BRANCH  20  22
ATOM     22  C   UNL     1     -34.317  -9.564  17.920  0.00  0.00    -0.018 A 
ATOM     23  C   UNL     1     -34.558  -8.212  18.221  0.00  0.00    +0.007 A 
ATOM     24  C   UNL     1     -34.263  -7.706  19.491  0.00  0.00    +0.020 A 
ATOM     25  C   UNL     1     -33.717  -8.543  20.470  0.00  0.00    +0.041 A 
ATOM     26 CL   UNL     1     -33.348  -7.906  22.062  0.00  0.00    -0.084 Cl
ATOM     27  C   UNL     1     -33.459  -9.884  20.174  0.00  0.00    +0.020 A 
ATOM     28  C   UNL     1     -33.750 -10.393  18.905  0.00  0.00    +0.007 A 
ENDBRANCH  20  22
ENDBRANCH   1  16
TORSDOF 5
ENDMDL
MODEL 9
REMARK VINA RESULT:    -3.564      3.423      5.448
REMARK INTER + INTRA:          -6.442
REMARK INTER:                  -5.631
REMARK INTRA:                  -0.811
REMARK UNBOUND:                -1.836
REMARK  Name = 
REMARK  6 active torsions:
REMARK  status: ('A' for Active; 'I' for Inactive)
REMARK    1  A    between atoms: C_1  and  C_2
REMARK    2  A    between atoms: C_2  and  C_3
REMARK    3  A    between atoms: N_5  and  C_6
REMARK    4  A    between atoms: C_9  and  S_12
REMARK    5  A    between atoms: S_12  and  N_15
REMARK    6  A    between atoms: C_19  and  C_21
REMARK                            x       y       z     vdW  Elec       q    Type
REMARK                         _______ _______ _______ _____ _____    ______ ____
ROOT
ATOM      1  S   UNL     1     -32.511 -11.823  15.272  0.00  0.00    +0.061 S 
ATOM      2  O   UNL     1     -31.893 -10.607  14.639  0.00  0.00    -0.153 OA
ATOM      3  O   UNL     1     -32.772 -12.836  14.192  0.00  0.00    -0.153 OA
ENDROOT
BRANCH   1   7
ATOM      4  C   UNL     1     -29.557 -13.491  18.344  0.00  0.00    +0.033 A 
ATOM      5  C   UNL     1     -30.722 -14.210  18.018  0.00  0.00    +0.025 A 
ATOM      6  C   UNL     1     -31.623 -13.704  17.077  0.00  0.00    +0.030 A 
ATOM      7  C   UNL     1     -31.367 -12.482  16.440  0.00  0.00    +0.106 A 
ATOM      8  C   UNL     1     -30.201 -11.772  16.750  0.00  0.00    +0.030 A 
ATOM      9  C   UNL     1     -29.298 -12.278  17.690  0.00  0.00    +0.025 A 
BRANCH   4  12
ATOM     10  C   UNL     1     -28.514 -13.569  20.658  0.00  0.00    +0.217 C 
ATOM     11  O   UNL     1     -29.143 -12.550  21.053  0.00  0.00    -0.275 OA
ATOM     12  N   UNL     1     -28.602 -14.000  19.290  0.00  0.00    -0.286 N 
ATOM     13  H   UNL     1     -27.877 -14.668  18.944  0.00  0.00    +0.155 HD
BRANCH  10  15
ATOM     14  C   UNL     1     -26.320 -14.681  21.003  0.00  0.00    +0.013 C 
ATOM     15  C   UNL     1     -27.663 -14.330  21.630  0.00  0.00    +0.093 C 
ENDBRANCH  10  15
ENDBRANCH   4  12
ENDBRANCH   1   7
BRANCH   1  16
ATOM     16  N   UNL     1     -34.004 -11.364  16.065  0.00  0.00    -0.172 NA
ATOM     17  C   UNL     1     -34.849 -10.516  15.204  0.00  0.00    +0.137 C 
ATOM     18  C   UNL     1     -34.288  -9.082  15.063  0.00  0.00    +0.178 C 
ATOM     19  O   UNL     1     -33.365  -8.731  16.081  0.00  0.00    -0.369 OA
ATOM     20  C   UNL     1     -33.812  -9.196  17.339  0.00  0.00    +0.164 C 
ATOM     21  C   UNL     1     -33.756 -10.744  17.384  0.00  0.00    +0.146 C 
BRANCH  20  22
ATOM     22  C   UNL     1     -32.957  -8.602  18.434  0.00  0.00    -0.018 A 
ATOM     23  C   UNL     1     -33.327  -7.396  19.057  0.00  0.00    +0.007 A 
ATOM     24  C   UNL     1     -32.514  -6.833  20.046  0.00  0.00    +0.020 A 
ATOM     25  C   UNL     1     -31.321  -7.462  20.417  0.00  0.00    +0.041 A 
ATOM     26 CL   UNL     1     -30.304  -6.753  21.657  0.00  0.00    -0.084 Cl
ATOM     27  C   UNL     1     -30.938  -8.652  19.791  0.00  0.00    +0.020 A 
ATOM     28  C   UNL     1     -31.746  -9.217  18.801  0.00  0.00    +0.007 A 
ENDBRANCH  20  22
ENDBRANCH   1  16
TORSDOF 5
ENDMDL
