MODEL 1
REMARK VINA RESULT:    -4.750      0.000      0.000
REMARK INTER + INTRA:          -9.622
REMARK INTER:                  -6.972
REMARK INTRA:                  -2.650
REMARK UNBOUND:                -2.650
REMARK  Name = 
REMARK  8 active torsions:
REMARK  status: ('A' for Active; 'I' for Inactive)
REMARK    1  A    between atoms: C_2  and  C_4
REMARK    2  A    between atoms: C_7  and  O_10
REMARK    3  A    between atoms: O_10  and  C_11
REMARK    4  A    between atoms: C_11  and  C_12
REMARK    5  A    between atoms: N_14  and  C_15
REMARK    6  A    between atoms: C_15  and  C_16
REMARK    7  A    between atoms: C_16  and  C_17
REMARK    8  A    between atoms: C_17  and  C_18
REMARK                            x       y       z     vdW  Elec       q    Type
REMARK                         _______ _______ _______ _____ _____    ______ ____
ROOT
ATOM      1  C   UNL     1     -33.064  -8.737  18.216  0.00  0.00    +0.251 C 
ATOM      2  O   UNL     1     -34.170  -8.900  18.801  0.00  0.00    -0.272 OA
ATOM      3  N   UNL     1     -33.014  -8.574  16.792  0.00  0.00    -0.313 N 
ATOM      4  H   UNL     1     -32.098  -8.347  16.342  0.00  0.00    +0.149 HD
ENDROOT
BRANCH   1   5
ATOM      5  C   UNL     1     -31.808  -8.662  19.021  0.00  0.00    +0.324 C 
BRANCH   5   6
ATOM      6  O   UNL     1     -30.720  -9.137  18.235  0.00  0.00    -0.483 OA
BRANCH   6  10
ATOM      7  C   UNL     1     -28.218 -12.322  19.441  0.00  0.00    +0.037 A 
ATOM      8  C   UNL     1     -27.878 -11.555  18.311  0.00  0.00    +0.016 A 
ATOM      9  C   UNL     1     -28.696 -10.498  17.898  0.00  0.00    +0.046 A 
ATOM     10  C   UNL     1     -29.867 -10.185  18.611  0.00  0.00    +0.121 A 
ATOM     11  C   UNL     1     -30.201 -10.942  19.739  0.00  0.00    +0.046 A 
ATOM     12  C   UNL     1     -29.384 -11.996  20.154  0.00  0.00    +0.016 A 
BRANCH   7  14
ATOM     13  N   UNL     1     -27.916 -14.625  20.476  0.00  0.00    -0.325 N 
ATOM     14  C   UNL     1     -27.359 -13.444  19.896  0.00  0.00    +0.242 C 
ATOM     15  O   UNL     1     -26.106 -13.353  19.786  0.00  0.00    -0.270 OA
ATOM     16  H   UNL     1     -27.292 -15.423  20.733  0.00  0.00    +0.145 HD
ATOM     17  H   UNL     1     -28.925 -14.688  20.736  0.00  0.00    +0.145 HD
ENDBRANCH   7  14
ENDBRANCH   6  10
ENDBRANCH   5   6
ENDBRANCH   1   5
BRANCH   3  18
ATOM     18  C   UNL     1     -34.207  -8.634  15.951  0.00  0.00    +0.104 C 
BRANCH  18  19
ATOM     19  C   UNL     1     -34.118  -9.819  14.980  0.00  0.00    +0.023 C 
BRANCH  19  20
ATOM     20  C   UNL     1     -34.353 -11.166  15.678  0.00  0.00    +0.036 C 
BRANCH  20  21
ATOM     21  C   UNL     1     -33.077 -11.955  15.826  0.00  0.00    -0.047 A 
ATOM     22  C   UNL     1     -32.816 -12.671  17.005  0.00  0.00    +0.005 A 
ATOM     23  C   UNL     1     -31.618 -13.379  17.148  0.00  0.00    +0.020 A 
ATOM     24  C   UNL     1     -30.672 -13.374  16.118  0.00  0.00    +0.041 A 
ATOM     25 CL   UNL     1     -29.170 -14.261  16.299  0.00  0.00    -0.084 Cl
ATOM     26  C   UNL     1     -30.924 -12.658  14.943  0.00  0.00    +0.020 A 
ATOM     27  C   UNL     1     -32.120 -11.948  14.798  0.00  0.00    +0.005 A 
ENDBRANCH  20  21
ENDBRANCH  19  20
ENDBRANCH  18  19
ENDBRANCH   3  18
TORSDOF 8
ENDMDL
MODEL 2
REMARK VINA RESULT:    -4.722      1.905      4.358
REMARK INTER + INTRA:          -9.580
REMARK INTER:                  -6.587
REMARK INTRA:                  -2.993
REMARK UNBOUND:                -2.650
REMARK  Name = 
REMARK  8 active torsions:
REMARK  status: ('A' for Active; 'I' for Inactive)
REMARK    1  A    between atoms: C_2  and  C_4
REMARK    2  A    between atoms: C_7  and  O_10
REMARK    3  A    between atoms: O_10  and  C_11
REMARK    4  A    between atoms: C_11  and  C_12
REMARK    5  A    between atoms: N_14  and  C_15
REMARK    6  A    between atoms: C_15  and  C_16
REMARK    7  A    between atoms: C_16  and  C_17
REMARK    8  A    between atoms: C_17  and  C_18
REMARK                            x       y       z     vdW  Elec       q    Type
REMARK                         _______ _______ _______ _____ _____    ______ ____
ROOT
ATOM      1  C   UNL     1     -33.962  -8.770  17.026  0.00  0.00    +0.251 C 
ATOM      2  O   UNL     1     -34.938  -8.881  17.817  0.00  0.00    -0.272 OA
ATOM      3  N   UNL     1     -32.663  -8.420  17.521  0.00  0.00    -0.313 N 
ATOM      4  H   UNL     1     -31.852  -8.425  16.861  0.00  0.00    +0.149 HD
ENDROOT
BRANCH   1   5
ATOM      5  C   UNL     1     -34.155  -9.055  15.572  0.00  0.00    +0.324 C 
BRANCH   5   6
ATOM      6  O   UNL     1     -34.198 -10.465  15.374  0.00  0.00    -0.483 OA
BRANCH   6  10
ATOM      7  C   UNL     1     -31.099 -13.155  16.386  0.00  0.00    +0.037 A 
ATOM      8  C   UNL     1     -30.926 -12.260  15.313  0.00  0.00    +0.016 A 
ATOM      9  C   UNL     1     -31.943 -11.364  14.964  0.00  0.00    +0.046 A 
ATOM     10  C   UNL     1     -33.149 -11.343  15.687  0.00  0.00    +0.121 A 
ATOM     11  C   UNL     1     -33.318 -12.225  16.759  0.00  0.00    +0.046 A 
ATOM     12  C   UNL     1     -32.303 -13.119  17.109  0.00  0.00    +0.016 A 
BRANCH   7  14
ATOM     13  N   UNL     1     -30.185 -14.998  17.880  0.00  0.00    -0.325 N 
ATOM     14  C   UNL     1     -30.029 -14.108  16.773  0.00  0.00    +0.242 C 
ATOM     15  O   UNL     1     -28.949 -14.129  16.123  0.00  0.00    -0.270 OA
ATOM     16  H   UNL     1     -29.440 -15.699  18.093  0.00  0.00    +0.145 HD
ATOM     17  H   UNL     1     -30.985 -14.916  18.545  0.00  0.00    +0.145 HD
ENDBRANCH   7  14
ENDBRANCH   6  10
ENDBRANCH   5   6
ENDBRANCH   1   5
BRANCH   3  18
ATOM     18  C   UNL     1     -32.410  -8.131  18.932  0.00  0.00    +0.104 C 
BRANCH  18  19
ATOM     19  C   UNL     1     -31.196  -8.926  19.431  0.00  0.00    +0.023 C 
BRANCH  19  20
ATOM     20  C   UNL     1     -30.472  -9.662  18.295  0.00  0.00    +0.036 C 
BRANCH  20  21
ATOM     21  C   UNL     1     -29.537 -10.723  18.817  0.00  0.00    -0.047 A 
ATOM     22  C   UNL     1     -28.297 -10.948  18.196  0.00  0.00    +0.005 A 
ATOM     23  C   UNL     1     -27.446 -11.952  18.667  0.00  0.00    +0.020 A 
ATOM     24  C   UNL     1     -27.827 -12.742  19.757  0.00  0.00    +0.041 A 
ATOM     25 CL   UNL     1     -26.758 -14.002  20.345  0.00  0.00    -0.084 Cl
ATOM     26  C   UNL     1     -29.062 -12.527  20.376  0.00  0.00    +0.020 A 
ATOM     27  C   UNL     1     -29.916 -11.524  19.906  0.00  0.00    +0.005 A 
ENDBRANCH  20  21
ENDBRANCH  19  20
ENDBRANCH  18  19
ENDBRANCH   3  18
TORSDOF 8
ENDMDL
MODEL 3
REMARK VINA RESULT:    -4.678      2.590      5.559
REMARK INTER + INTRA:          -9.516
REMARK INTER:                  -6.538
REMARK INTRA:                  -2.978
REMARK UNBOUND:                -2.650
REMARK  Name = 
REMARK  8 active torsions:
REMARK  status: ('A' for Active; 'I' for Inactive)
REMARK    1  A    between atoms: C_2  and  C_4
REMARK    2  A    between atoms: C_7  and  O_10
REMARK    3  A    between atoms: O_10  and  C_11
REMARK    4  A    between atoms: C_11  and  C_12
REMARK    5  A    between atoms: N_14  and  C_15
REMARK    6  A    between atoms: C_15  and  C_16
REMARK    7  A    between atoms: C_16  and  C_17
REMARK    8  A    between atoms: C_17  and  C_18
REMARK                            x       y       z     vdW  Elec       q    Type
REMARK                         _______ _______ _______ _____ _____    ______ ____
ROOT
ATOM      1  C   UNL     1     -30.268  -9.835  19.007  0.00  0.00    +0.251 C 
ATOM      2  O   UNL     1     -29.080  -9.741  18.592  0.00  0.00    -0.272 OA
ATOM      3  N   UNL     1     -30.574 -10.634  20.158  0.00  0.00    -0.313 N 
ATOM      4  H   UNL     1     -31.548 -10.622  20.537  0.00  0.00    +0.149 HD
ENDROOT
BRANCH   1   5
ATOM      5  C   UNL     1     -31.350  -9.066  18.323  0.00  0.00    +0.324 C 
BRANCH   5   6
ATOM      6  O   UNL     1     -32.434  -9.943  18.030  0.00  0.00    -0.483 OA
BRANCH   6  10
ATOM      7  C   UNL     1     -33.164 -11.821  14.315  0.00  0.00    +0.037 A 
ATOM      8  C   UNL     1     -31.956 -11.130  14.524  0.00  0.00    +0.016 A 
ATOM      9  C   UNL     1     -31.700 -10.502  15.747  0.00  0.00    +0.046 A 
ATOM     10  C   UNL     1     -32.645 -10.558  16.787  0.00  0.00    +0.121 A 
ATOM     11  C   UNL     1     -33.842 -11.253  16.584  0.00  0.00    +0.046 A 
ATOM     12  C   UNL     1     -34.099 -11.882  15.364  0.00  0.00    +0.016 A 
BRANCH   7  14
ATOM     13  N   UNL     1     -34.754 -12.469  12.440  0.00  0.00    -0.325 N 
ATOM     14  C   UNL     1     -33.451 -12.497  13.026  0.00  0.00    +0.242 C 
ATOM     15  O   UNL     1     -32.532 -13.125  12.434  0.00  0.00    -0.270 OA
ATOM     16  H   UNL     1     -34.913 -12.903  11.503  0.00  0.00    +0.145 HD
ATOM     17  H   UNL     1     -35.584 -12.104  12.958  0.00  0.00    +0.145 HD
ENDBRANCH   7  14
ENDBRANCH   6  10
ENDBRANCH   5   6
ENDBRANCH   1   5
BRANCH   3  18
ATOM     18  C   UNL     1     -29.559 -11.406  20.871  0.00  0.00    +0.104 C 
BRANCH  18  19
ATOM     19  C   UNL     1     -29.476 -12.831  20.308  0.00  0.00    +0.023 C 
BRANCH  19  20
ATOM     20  C   UNL     1     -30.764 -13.248  19.583  0.00  0.00    +0.036 C 
BRANCH  20  21
ATOM     21  C   UNL     1     -30.501 -13.650  18.153  0.00  0.00    -0.047 A 
ATOM     22  C   UNL     1     -29.265 -13.364  17.550  0.00  0.00    +0.005 A 
ATOM     23  C   UNL     1     -29.035 -13.714  16.216  0.00  0.00    +0.020 A 
ATOM     24  C   UNL     1     -30.038 -14.347  15.473  0.00  0.00    +0.041 A 
ATOM     25 CL   UNL     1     -29.750 -14.783  13.799  0.00  0.00    -0.084 Cl
ATOM     26  C   UNL     1     -31.273 -14.629  16.067  0.00  0.00    +0.020 A 
ATOM     27  C   UNL     1     -31.505 -14.279  17.401  0.00  0.00    +0.005 A 
ENDBRANCH  20  21
ENDBRANCH  19  20
ENDBRANCH  18  19
ENDBRANCH   3  18
TORSDOF 8
ENDMDL
MODEL 4
REMARK VINA RESULT:    -4.554      2.765      4.423
REMARK INTER + INTRA:          -9.334
REMARK INTER:                  -6.358
REMARK INTRA:                  -2.976
REMARK UNBOUND:                -2.650
REMARK  Name = 
REMARK  8 active torsions:
REMARK  status: ('A' for Active; 'I' for Inactive)
REMARK    1  A    between atoms: C_2  and  C_4
REMARK    2  A    between atoms: C_7  and  O_10
REMARK    3  A    between atoms: O_10  and  C_11
REMARK    4  A    between atoms: C_11  and  C_12
REMARK    5  A    between atoms: N_14  and  C_15
REMARK    6  A    between atoms: C_15  and  C_16
REMARK    7  A    between atoms: C_16  and  C_17
REMARK    8  A    between atoms: C_17  and  C_18
REMARK                            x       y       z     vdW  Elec       q    Type
REMARK                         _______ _______ _______ _____ _____    ______ ____
ROOT
ATOM      1  C   UNL     1     -33.750 -11.854  13.678  0.00  0.00    +0.251 C 
ATOM      2  O   UNL     1     -34.558 -12.668  13.154  0.00  0.00    -0.272 OA
ATOM      3  N   UNL     1     -32.349 -11.931  13.383  0.00  0.00    -0.313 N 
ATOM      4  H   UNL     1     -31.713 -11.189  13.755  0.00  0.00    +0.149 HD
ENDROOT
BRANCH   1   5
ATOM      5  C   UNL     1     -34.267 -10.773  14.570  0.00  0.00    +0.324 C 
BRANCH   5   6
ATOM      6  O   UNL     1     -33.235  -9.816  14.792  0.00  0.00    -0.483 OA
BRANCH   6  10
ATOM      7  C   UNL     1     -30.826  -9.734  18.263  0.00  0.00    +0.037 A 
ATOM      8  C   UNL     1     -30.227  -9.891  17.000  0.00  0.00    +0.016 A 
ATOM      9  C   UNL     1     -31.010  -9.922  15.841  0.00  0.00    +0.046 A 
ATOM     10  C   UNL     1     -32.408  -9.790  15.925  0.00  0.00    +0.121 A 
ATOM     11  C   UNL     1     -33.003  -9.624  17.179  0.00  0.00    +0.046 A 
ATOM     12  C   UNL     1     -32.223  -9.591  18.337  0.00  0.00    +0.016 A 
BRANCH   7  14
ATOM     13  N   UNL     1     -30.134  -8.626  20.445  0.00  0.00    -0.325 N 
ATOM     14  C   UNL     1     -30.010  -9.693  19.502  0.00  0.00    +0.242 C 
ATOM     15  O   UNL     1     -29.176 -10.611  19.729  0.00  0.00    -0.270 OA
ATOM     16  H   UNL     1     -29.590  -8.653  21.337  0.00  0.00    +0.145 HD
ATOM     17  H   UNL     1     -30.687  -7.766  20.234  0.00  0.00    +0.145 HD
ENDBRANCH   7  14
ENDBRANCH   6  10
ENDBRANCH   5   6
ENDBRANCH   1   5
BRANCH   3  18
ATOM     18  C   UNL     1     -31.783 -12.963  12.516  0.00  0.00    +0.104 C 
BRANCH  18  19
ATOM     19  C   UNL     1     -31.332 -14.171  13.348  0.00  0.00    +0.023 C 
BRANCH  19  20
ATOM     20  C   UNL     1     -30.023 -13.905  14.104  0.00  0.00    +0.036 C 
BRANCH  20  21
ATOM     21  C   UNL     1     -30.243 -13.797  15.591  0.00  0.00    -0.047 A 
ATOM     22  C   UNL     1     -31.544 -13.800  16.120  0.00  0.00    +0.005 A 
ATOM     23  C   UNL     1     -31.744 -13.672  17.498  0.00  0.00    +0.020 A 
ATOM     24  C   UNL     1     -30.649 -13.535  18.357  0.00  0.00    +0.041 A 
ATOM     25 CL   UNL     1     -30.901 -13.372  20.085  0.00  0.00    -0.084 Cl
ATOM     26  C   UNL     1     -29.351 -13.525  17.836  0.00  0.00    +0.020 A 
ATOM     27  C   UNL     1     -29.148 -13.652  16.458  0.00  0.00    +0.005 A 
ENDBRANCH  20  21
ENDBRANCH  19  20
ENDBRANCH  18  19
ENDBRANCH   3  18
TORSDOF 8
ENDMDL
MODEL 5
REMARK VINA RESULT:    -4.504      3.413      5.069
REMARK INTER + INTRA:          -9.261
REMARK INTER:                  -6.083
REMARK INTRA:                  -3.177
REMARK UNBOUND:                -2.650
REMARK  Name = 
REMARK  8 active torsions:
REMARK  status: ('A' for Active; 'I' for Inactive)
REMARK    1  A    between atoms: C_2  and  C_4
REMARK    2  A    between atoms: C_7  and  O_10
REMARK    3  A    between atoms: O_10  and  C_11
REMARK    4  A    between atoms: C_11  and  C_12
REMARK    5  A    between atoms: N_14  and  C_15
REMARK    6  A    between atoms: C_15  and  C_16
REMARK    7  A    between atoms: C_16  and  C_17
REMARK    8  A    between atoms: C_17  and  C_18
REMARK                            x       y       z     vdW  Elec       q    Type
REMARK                         _______ _______ _______ _____ _____    ______ ____
ROOT
ATOM      1  C   UNL     1     -29.564 -14.364  13.487  0.00  0.00    +0.251 C 
ATOM      2  O   UNL     1     -28.884 -13.937  12.514  0.00  0.00    -0.272 OA
ATOM      3  N   UNL     1     -30.992 -14.225  13.492  0.00  0.00    -0.313 N 
ATOM      4  H   UNL     1     -31.540 -14.668  14.264  0.00  0.00    +0.149 HD
ENDROOT
BRANCH   1   5
ATOM      5  C   UNL     1     -28.879 -15.062  14.616  0.00  0.00    +0.324 C 
BRANCH   5   6
ATOM      6  O   UNL     1     -28.473 -14.100  15.584  0.00  0.00    -0.483 OA
BRANCH   6  10
ATOM      7  C   UNL     1     -30.686 -12.930  18.989  0.00  0.00    +0.037 A 
ATOM      8  C   UNL     1     -31.243 -13.839  18.071  0.00  0.00    +0.016 A 
ATOM      9  C   UNL     1     -30.525 -14.236  16.939  0.00  0.00    +0.046 A 
ATOM     10  C   UNL     1     -29.232 -13.734  16.706  0.00  0.00    +0.121 A 
ATOM     11  C   UNL     1     -28.673 -12.837  17.623  0.00  0.00    +0.046 A 
ATOM     12  C   UNL     1     -29.388 -12.441  18.755  0.00  0.00    +0.016 A 
BRANCH   7  14
ATOM     13  N   UNL     1     -32.861 -12.507  20.237  0.00  0.00    -0.325 N 
ATOM     14  C   UNL     1     -31.432 -12.503  20.199  0.00  0.00    +0.242 C 
ATOM     15  O   UNL     1     -30.798 -12.113  21.217  0.00  0.00    -0.270 OA
ATOM     16  H   UNL     1     -33.358 -12.258  21.121  0.00  0.00    +0.145 HD
ATOM     17  H   UNL     1     -33.434 -12.666  19.379  0.00  0.00    +0.145 HD
ENDBRANCH   7  14
ENDBRANCH   6  10
ENDBRANCH   5   6
ENDBRANCH   1   5
BRANCH   3  18
ATOM     18  C   UNL     1     -31.720 -13.554  12.417  0.00  0.00    +0.104 C 
BRANCH  18  19
ATOM     19  C   UNL     1     -32.184 -12.164  12.871  0.00  0.00    +0.023 C 
BRANCH  19  20
ATOM     20  C   UNL     1     -33.172 -12.233  14.044  0.00  0.00    +0.036 C 
BRANCH  20  21
ATOM     21  C   UNL     1     -32.741 -11.361  15.195  0.00  0.00    -0.047 A 
ATOM     22  C   UNL     1     -31.480 -10.741  15.186  0.00  0.00    +0.005 A 
ATOM     23  C   UNL     1     -31.074  -9.956  16.269  0.00  0.00    +0.020 A 
ATOM     24  C   UNL     1     -31.919  -9.786  17.371  0.00  0.00    +0.041 A 
ATOM     25 CL   UNL     1     -31.407  -8.802  18.729  0.00  0.00    -0.084 Cl
ATOM     26  C   UNL     1     -33.174 -10.405  17.388  0.00  0.00    +0.020 A 
ATOM     27  C   UNL     1     -33.582 -11.192  16.307  0.00  0.00    +0.005 A 
ENDBRANCH  20  21
ENDBRANCH  19  20
ENDBRANCH  18  19
ENDBRANCH   3  18
TORSDOF 8
ENDMDL
MODEL 6
REMARK VINA RESULT:    -4.474      3.181      4.648
REMARK INTER + INTRA:          -9.216
REMARK INTER:                  -5.791
REMARK INTRA:                  -3.425
REMARK UNBOUND:                -2.650
REMARK  Name = 
REMARK  8 active torsions:
REMARK  status: ('A' for Active; 'I' for Inactive)
REMARK    1  A    between atoms: C_2  and  C_4
REMARK    2  A    between atoms: C_7  and  O_10
REMARK    3  A    between atoms: O_10  and  C_11
REMARK    4  A    between atoms: C_11  and  C_12
REMARK    5  A    between atoms: N_14  and  C_15
REMARK    6  A    between atoms: C_15  and  C_16
REMARK    7  A    between atoms: C_16  and  C_17
REMARK    8  A    between atoms: C_17  and  C_18
REMARK                            x       y       z     vdW  Elec       q    Type
REMARK                         _______ _______ _______ _____ _____    ______ ____
ROOT
ATOM      1  C   UNL     1     -31.580 -13.112  12.604  0.00  0.00    +0.251 C 
ATOM      2  O   UNL     1     -31.292 -12.081  11.937  0.00  0.00    -0.272 OA
ATOM      3  N   UNL     1     -32.934 -13.364  13.003  0.00  0.00    -0.313 N 
ATOM      4  H   UNL     1     -33.162 -14.270  13.473  0.00  0.00    +0.149 HD
ENDROOT
BRANCH   1   5
ATOM      5  C   UNL     1     -30.509 -14.101  12.932  0.00  0.00    +0.324 C 
BRANCH   5   6
ATOM      6  O   UNL     1     -30.882 -14.824  14.101  0.00  0.00    -0.483 OA
BRANCH   6  10
ATOM      7  C   UNL     1     -30.050 -13.662  18.078  0.00  0.00    +0.037 A 
ATOM      8  C   UNL     1     -29.053 -13.545  17.093  0.00  0.00    +0.016 A 
ATOM      9  C   UNL     1     -29.311 -13.926  15.772  0.00  0.00    +0.046 A 
ATOM     10  C   UNL     1     -30.575 -14.427  15.411  0.00  0.00    +0.121 A 
ATOM     11  C   UNL     1     -31.570 -14.534  16.388  0.00  0.00    +0.046 A 
ATOM     12  C   UNL     1     -31.314 -14.153  17.707  0.00  0.00    +0.016 A 
BRANCH   7  14
ATOM     13  N   UNL     1     -30.600 -13.743  20.560  0.00  0.00    -0.325 N 
ATOM     14  C   UNL     1     -29.795 -13.257  19.483  0.00  0.00    +0.242 C 
ATOM     15  O   UNL     1     -28.857 -12.455  19.740  0.00  0.00    -0.270 OA
ATOM     16  H   UNL     1     -30.361 -13.488  21.544  0.00  0.00    +0.145 HD
ATOM     17  H   UNL     1     -31.481 -14.278  20.391  0.00  0.00    +0.145 HD
ENDBRANCH   7  14
ENDBRANCH   6  10
ENDBRANCH   5   6
ENDBRANCH   1   5
BRANCH   3  18
ATOM     18  C   UNL     1     -34.025 -12.437  12.710  0.00  0.00    +0.104 C 
BRANCH  18  19
ATOM     19  C   UNL     1     -34.019 -11.271  13.707  0.00  0.00    +0.023 C 
BRANCH  19  20
ATOM     20  C   UNL     1     -34.243 -11.737  15.152  0.00  0.00    +0.036 C 
BRANCH  20  21
ATOM     21  C   UNL     1     -33.238 -11.135  16.101  0.00  0.00    -0.047 A 
ATOM     22  C   UNL     1     -31.975 -10.730  15.638  0.00  0.00    +0.005 A 
ATOM     23  C   UNL     1     -31.037 -10.198  16.527  0.00  0.00    +0.020 A 
ATOM     24  C   UNL     1     -31.349 -10.069  17.884  0.00  0.00    +0.041 A 
ATOM     25 CL   UNL     1     -30.170  -9.402  18.998  0.00  0.00    -0.084 Cl
ATOM     26  C   UNL     1     -32.603 -10.475  18.353  0.00  0.00    +0.020 A 
ATOM     27  C   UNL     1     -33.543 -11.009  17.466  0.00  0.00    +0.005 A 
ENDBRANCH  20  21
ENDBRANCH  19  20
ENDBRANCH  18  19
ENDBRANCH   3  18
TORSDOF 8
ENDMDL
MODEL 7
REMARK VINA RESULT:    -4.191      2.394      5.531
REMARK INTER + INTRA:          -8.802
REMARK INTER:                  -5.581
REMARK INTRA:                  -3.221
REMARK UNBOUND:                -2.650
REMARK  Name = 
REMARK  8 active torsions:
REMARK  status: ('A' for Active; 'I' for Inactive)
REMARK    1  A    between atoms: C_2  and  C_4
REMARK    2  A    between atoms: C_7  and  O_10
REMARK    3  A    between atoms: O_10  and  C_11
REMARK    4  A    between atoms: C_11  and  C_12
REMARK    5  A    between atoms: N_14  and  C_15
REMARK    6  A    between atoms: C_15  and  C_16
REMARK    7  A    between atoms: C_16  and  C_17
REMARK    8  A    between atoms: C_17  and  C_18
REMARK                            x       y       z     vdW  Elec       q    Type
REMARK                         _______ _______ _______ _____ _____    ______ ____
ROOT
ATOM      1  C   UNL     1     -28.568 -13.222  18.437  0.00  0.00    +0.251 C 
ATOM      2  O   UNL     1     -27.573 -12.663  17.900  0.00  0.00    -0.272 OA
ATOM      3  N   UNL     1     -29.447 -14.045  17.658  0.00  0.00    -0.313 N 
ATOM      4  H   UNL     1     -30.209 -14.571  18.143  0.00  0.00    +0.149 HD
ENDROOT
BRANCH   1   5
ATOM      5  C   UNL     1     -28.800 -13.064  19.904  0.00  0.00    +0.324 C 
BRANCH   5   6
ATOM      6  O   UNL     1     -30.196 -12.920  20.145  0.00  0.00    -0.483 OA
BRANCH   6  10
ATOM      7  C   UNL     1     -32.471  -9.416  19.503  0.00  0.00    +0.037 A 
ATOM      8  C   UNL     1     -31.068  -9.369  19.397  0.00  0.00    +0.016 A 
ATOM      9  C   UNL     1     -30.301 -10.519  19.608  0.00  0.00    +0.046 A 
ATOM     10  C   UNL     1     -30.923 -11.740  19.923  0.00  0.00    +0.121 A 
ATOM     11  C   UNL     1     -32.317 -11.791  20.019  0.00  0.00    +0.046 A 
ATOM     12  C   UNL     1     -33.085 -10.644  19.807  0.00  0.00    +0.016 A 
BRANCH   7  14
ATOM     13  N   UNL     1     -32.786  -7.064  18.591  0.00  0.00    -0.325 N 
ATOM     14  C   UNL     1     -33.301  -8.207  19.277  0.00  0.00    +0.242 C 
ATOM     15  O   UNL     1     -34.485  -8.175  19.708  0.00  0.00    -0.270 OA
ATOM     16  H   UNL     1     -33.411  -6.250  18.395  0.00  0.00    +0.145 HD
ATOM     17  H   UNL     1     -31.773  -6.973  18.354  0.00  0.00    +0.145 HD
ENDBRANCH   7  14
ENDBRANCH   6  10
ENDBRANCH   5   6
ENDBRANCH   1   5
BRANCH   3  18
ATOM     18  C   UNL     1     -29.272 -14.241  16.220  0.00  0.00    +0.104 C 
BRANCH  18  19
ATOM     19  C   UNL     1     -30.558 -13.872  15.469  0.00  0.00    +0.023 C 
BRANCH  19  20
ATOM     20  C   UNL     1     -31.731 -13.595  16.421  0.00  0.00    +0.036 C 
BRANCH  20  21
ATOM     21  C   UNL     1     -32.357 -12.247  16.166  0.00  0.00    -0.047 A 
ATOM     22  C   UNL     1     -31.554 -11.135  15.866  0.00  0.00    +0.005 A 
ATOM     23  C   UNL     1     -32.137  -9.881  15.657  0.00  0.00    +0.020 A 
ATOM     24  C   UNL     1     -33.524  -9.727  15.752  0.00  0.00    +0.041 A 
ATOM     25 CL   UNL     1     -34.254  -8.154  15.493  0.00  0.00    -0.084 Cl
ATOM     26  C   UNL     1     -34.329 -10.830  16.057  0.00  0.00    +0.020 A 
ATOM     27  C   UNL     1     -33.748 -12.085  16.267  0.00  0.00    +0.005 A 
ENDBRANCH  20  21
ENDBRANCH  19  20
ENDBRANCH  18  19
ENDBRANCH   3  18
TORSDOF 8
ENDMDL
MODEL 8
REMARK VINA RESULT:    -4.164      1.955      2.671
REMARK INTER + INTRA:          -8.762
REMARK INTER:                  -6.027
REMARK INTRA:                  -2.735
REMARK UNBOUND:                -2.650
REMARK  Name = 
REMARK  8 active torsions:
REMARK  status: ('A' for Active; 'I' for Inactive)
REMARK    1  A    between atoms: C_2  and  C_4
REMARK    2  A    between atoms: C_7  and  O_10
REMARK    3  A    between atoms: O_10  and  C_11
REMARK    4  A    between atoms: C_11  and  C_12
REMARK    5  A    between atoms: N_14  and  C_15
REMARK    6  A    between atoms: C_15  and  C_16
REMARK    7  A    between atoms: C_16  and  C_17
REMARK    8  A    between atoms: C_17  and  C_18
REMARK                            x       y       z     vdW  Elec       q    Type
REMARK                         _______ _______ _______ _____ _____    ______ ____
ROOT
ATOM      1  C   UNL     1     -34.208  -9.167  18.772  0.00  0.00    +0.251 C 
ATOM      2  O   UNL     1     -34.181  -8.090  18.116  0.00  0.00    -0.272 OA
ATOM      3  N   UNL     1     -34.617 -10.389  18.144  0.00  0.00    -0.313 N 
ATOM      4  H   UNL     1     -34.542 -11.283  18.682  0.00  0.00    +0.149 HD
ENDROOT
BRANCH   1   5
ATOM      5  C   UNL     1     -33.761  -9.173  20.197  0.00  0.00    +0.324 C 
BRANCH   5   6
ATOM      6  O   UNL     1     -33.598 -10.520  20.631  0.00  0.00    -0.483 OA
BRANCH   6  10
ATOM      7  C   UNL     1     -29.910 -12.571  20.854  0.00  0.00    +0.037 A 
ATOM      8  C   UNL     1     -30.096 -11.385  21.588  0.00  0.00    +0.016 A 
ATOM      9  C   UNL     1     -31.310 -10.693  21.524  0.00  0.00    +0.046 A 
ATOM     10  C   UNL     1     -32.364 -11.178  20.729  0.00  0.00    +0.121 A 
ATOM     11  C   UNL     1     -32.183 -12.362  20.006  0.00  0.00    +0.046 A 
ATOM     12  C   UNL     1     -30.972 -13.055  20.070  0.00  0.00    +0.016 A 
BRANCH   7  14
ATOM     13  N   UNL     1     -28.343 -14.384  20.003  0.00  0.00    -0.325 N 
ATOM     14  C   UNL     1     -28.631 -13.321  20.914  0.00  0.00    +0.242 C 
ATOM     15  O   UNL     1     -27.778 -13.028  21.796  0.00  0.00    -0.270 OA
ATOM     16  H   UNL     1     -27.411 -14.855  20.031  0.00  0.00    +0.145 HD
ATOM     17  H   UNL     1     -29.070 -14.771  19.362  0.00  0.00    +0.145 HD
ENDBRANCH   7  14
ENDBRANCH   6  10
ENDBRANCH   5   6
ENDBRANCH   1   5
BRANCH   3  18
ATOM     18  C   UNL     1     -35.062 -10.448  16.753  0.00  0.00    +0.104 C 
BRANCH  18  19
ATOM     19  C   UNL     1     -34.324 -11.565  16.002  0.00  0.00    +0.023 C 
BRANCH  19  20
ATOM     20  C   UNL     1     -33.178 -11.027  15.135  0.00  0.00    +0.036 C 
BRANCH  20  21
ATOM     21  C   UNL     1     -31.867 -11.013  15.879  0.00  0.00    -0.047 A 
ATOM     22  C   UNL     1     -31.129 -12.198  16.044  0.00  0.00    +0.005 A 
ATOM     23  C   UNL     1     -29.928 -12.185  16.759  0.00  0.00    +0.020 A 
ATOM     24  C   UNL     1     -29.456 -10.992  17.318  0.00  0.00    +0.041 A 
ATOM     25 CL   UNL     1     -27.949 -10.978  18.216  0.00  0.00    -0.084 Cl
ATOM     26  C   UNL     1     -30.188  -9.811  17.162  0.00  0.00    +0.020 A 
ATOM     27  C   UNL     1     -31.391  -9.821  16.448  0.00  0.00    +0.005 A 
ENDBRANCH  20  21
ENDBRANCH  19  20
ENDBRANCH  18  19
ENDBRANCH   3  18
TORSDOF 8
ENDMDL
MODEL 9
REMARK VINA RESULT:    -4.056      2.434      3.416
REMARK INTER + INTRA:          -8.604
REMARK INTER:                  -5.612
REMARK INTRA:                  -2.992
REMARK UNBOUND:                -2.650
REMARK  Name = 
REMARK  8 active torsions:
REMARK  status: ('A' for Active; 'I' for Inactive)
REMARK    1  A    between atoms: C_2  and  C_4
REMARK    2  A    between atoms: C_7  and  O_10
REMARK    3  A    between atoms: O_10  and  C_11
REMARK    4  A    between atoms: C_11  and  C_12
REMARK    5  A    between atoms: N_14  and  C_15
REMARK    6  A    between atoms: C_15  and  C_16
REMARK    7  A    between atoms: C_16  and  C_17
REMARK    8  A    between atoms: C_17  and  C_18
REMARK                            x       y       z     vdW  Elec       q    Type
REMARK                         _______ _______ _______ _____ _____    ______ ____
ROOT
ATOM      1  C   UNL     1     -30.879  -8.790  20.610  0.00  0.00    +0.251 C 
ATOM      2  O   UNL     1     -30.074  -7.964  20.099  0.00  0.00    -0.272 OA
ATOM      3  N   UNL     1     -32.273  -8.745  20.277  0.00  0.00    -0.313 N 
ATOM      4  H   UNL     1     -32.903  -9.496  20.640  0.00  0.00    +0.149 HD
ENDROOT
BRANCH   1   5
ATOM      5  C   UNL     1     -30.363  -9.851  21.526  0.00  0.00    +0.324 C 
BRANCH   5   6
ATOM      6  O   UNL     1     -29.349 -10.594  20.858  0.00  0.00    -0.483 OA
BRANCH   6  10
ATOM      7  C   UNL     1     -29.988 -13.399  17.762  0.00  0.00    +0.037 A 
ATOM      8  C   UNL     1     -30.888 -13.332  18.842  0.00  0.00    +0.016 A 
ATOM      9  C   UNL     1     -30.690 -12.411  19.875  0.00  0.00    +0.046 A 
ATOM     10  C   UNL     1     -29.591 -11.534  19.845  0.00  0.00    +0.121 A 
ATOM     11  C   UNL     1     -28.701 -11.593  18.767  0.00  0.00    +0.046 A 
ATOM     12  C   UNL     1     -28.898 -12.511  17.733  0.00  0.00    +0.016 A 
BRANCH   7  14
ATOM     13  N   UNL     1     -29.079 -14.995  16.003  0.00  0.00    -0.325 N 
ATOM     14  C   UNL     1     -30.186 -14.367  16.654  0.00  0.00    +0.242 C 
ATOM     15  O   UNL     1     -31.354 -14.636  16.263  0.00  0.00    -0.270 OA
ATOM     16  H   UNL     1     -29.250 -15.716  15.267  0.00  0.00    +0.145 HD
ATOM     17  H   UNL     1     -28.095 -14.693  16.176  0.00  0.00    +0.145 HD
ENDBRANCH   7  14
ENDBRANCH   6  10
ENDBRANCH   5   6
ENDBRANCH   1   5
BRANCH   3  18
ATOM     18  C   UNL     1     -32.837  -7.734  19.386  0.00  0.00    +0.104 C 
BRANCH  18  19
ATOM     19  C   UNL     1     -33.669  -8.398  18.281  0.00  0.00    +0.023 C 
BRANCH  19  20
ATOM     20  C   UNL     1     -33.613  -9.931  18.350  0.00  0.00    +0.036 C 
BRANCH  20  21
ATOM     21  C   UNL     1     -33.157 -10.536  17.047  0.00  0.00    -0.047 A 
ATOM     22  C   UNL     1     -33.952 -11.489  16.388  0.00  0.00    +0.005 A 
ATOM     23  C   UNL     1     -33.512 -12.068  15.194  0.00  0.00    +0.020 A 
ATOM     24  C   UNL     1     -32.274 -11.705  14.651  0.00  0.00    +0.041 A 
ATOM     25 CL   UNL     1     -31.722 -12.434  13.155  0.00  0.00    -0.084 Cl
ATOM     26  C   UNL     1     -31.476 -10.762  15.306  0.00  0.00    +0.020 A 
ATOM     27  C   UNL     1     -31.913 -10.182  16.501  0.00  0.00    +0.005 A 
ENDBRANCH  20  21
ENDBRANCH  19  20
ENDBRANCH  18  19
ENDBRANCH   3  18
TORSDOF 8
ENDMDL
