MODEL 1
REMARK VINA RESULT:    -6.092      0.000      0.000
REMARK INTER + INTRA:          -6.321
REMARK INTER:                  -7.517
REMARK INTRA:                   1.195
REMARK UNBOUND:                 1.195
REMARK  Name = 
REMARK  8 active torsions:
REMARK  status: ('A' for Active; 'I' for Inactive)
REMARK    1  A    between atoms: C_1  and  C_2
REMARK    2  A    between atoms: C_4  and  C_15
REMARK    3  A    between atoms: C_6  and  S_9
REMARK    4  A    between atoms: C_7  and  C_8
REMARK    5  A    between atoms: S_9  and  N_12
REMARK    6  A    between atoms: N_12  and  C_13
REMARK    7  A    between atoms: N_12  and  C_14
REMARK    8  A    between atoms: C_21  and  C_22
REMARK                            x       y       z     vdW  Elec       q    Type
REMARK                         _______ _______ _______ _____ _____    ______ ____
ROOT
ATOM      1  C   UNL     1     -31.110  -9.604  16.648  0.00  0.00    +0.247 C 
ATOM      2  O   UNL     1     -29.998  -9.066  16.393  0.00  0.00    -0.270 OA
ATOM      3  N   UNL     1     -31.661  -9.508  17.973  0.00  0.00    -0.290 N 
ATOM      4  C   UNL     1     -33.073  -9.663  18.280  0.00  0.00    +0.109 C 
ATOM      5  C   UNL     1     -33.205  -9.367  19.766  0.00  0.00    +0.021 C 
ATOM      6  C   UNL     1     -31.801  -9.481  20.350  0.00  0.00    +0.029 C 
ATOM      7  C   UNL     1     -30.837  -9.350  19.166  0.00  0.00    +0.107 C 
ENDROOT
BRANCH   7   8
ATOM      8  C   UNL     1     -29.744 -10.398  19.224  0.00  0.00    -0.023 A 
ATOM      9  C   UNL     1     -28.832 -10.528  18.160  0.00  0.00    +0.009 A 
ATOM     10  C   UNL     1     -27.832 -11.505  18.199  0.00  0.00    +0.050 A 
ATOM     11  C   UNL     1     -27.733 -12.356  19.301  0.00  0.00    +0.162 A 
ATOM     12  O   UNL     1     -26.734 -13.333  19.365  0.00  0.00    -0.485 OA
ATOM     13  C   UNL     1     -26.461 -14.035  20.580  0.00  0.00    +0.270 C 
ATOM     14  C   UNL     1     -27.766 -14.322  21.336  0.00  0.00    +0.270 C 
ATOM     15  O   UNL     1     -28.553 -13.133  21.433  0.00  0.00    -0.485 OA
ATOM     16  C   UNL     1     -28.641 -12.240  20.361  0.00  0.00    +0.162 A 
ATOM     17  C   UNL     1     -29.623 -11.249  20.340  0.00  0.00    +0.055 A 
ENDBRANCH   7   8
BRANCH   1  21
ATOM     18  C   UNL     1     -34.884 -10.495  13.511  0.00  0.00    +0.044 C 
ATOM     19  C   UNL     1     -33.568 -10.935  14.098  0.00  0.00    -0.045 A 
ATOM     20  C   UNL     1     -32.949 -10.094  15.035  0.00  0.00    +0.016 A 
ATOM     21  C   UNL     1     -31.740 -10.455  15.628  0.00  0.00    +0.039 A 
ATOM     22  C   UNL     1     -31.130 -11.658  15.276  0.00  0.00    +0.042 A 
ATOM     23  C   UNL     1     -31.720 -12.527  14.352  0.00  0.00    +0.109 A 
ATOM     24  C   UNL     1     -32.939 -12.154  13.715  0.00  0.00    -0.021 A 
ATOM     25  C   UNL     1     -33.581 -13.053  12.683  0.00  0.00    +0.046 C 
BRANCH  23  26
ATOM     26  S   UNL     1     -30.858 -14.052  14.048  0.00  0.00    +0.061 S 
ATOM     27  O   UNL     1     -31.141 -14.602  12.678  0.00  0.00    -0.153 OA
ATOM     28  O   UNL     1     -31.338 -15.061  15.053  0.00  0.00    -0.153 OA
BRANCH  26  29
ATOM     29  N   UNL     1     -29.143 -13.807  14.263  0.00  0.00    -0.183 NA
ATOM     30  C   UNL     1     -28.405 -14.451  13.170  0.00  0.00    +0.131 C 
ATOM     31  C   UNL     1     -28.725 -14.370  15.551  0.00  0.00    +0.131 C 
ENDBRANCH  26  29
ENDBRANCH  23  26
ENDBRANCH   1  21
TORSDOF 4
ENDMDL
MODEL 2
REMARK VINA RESULT:    -5.762      2.583      5.864
REMARK INTER + INTRA:          -5.915
REMARK INTER:                  -5.259
REMARK INTRA:                  -0.655
REMARK UNBOUND:                 1.195
REMARK  Name = 
REMARK  8 active torsions:
REMARK  status: ('A' for Active; 'I' for Inactive)
REMARK    1  A    between atoms: C_1  and  C_2
REMARK    2  A    between atoms: C_4  and  C_15
REMARK    3  A    between atoms: C_6  and  S_9
REMARK    4  A    between atoms: C_7  and  C_8
REMARK    5  A    between atoms: S_9  and  N_12
REMARK    6  A    between atoms: N_12  and  C_13
REMARK    7  A    between atoms: N_12  and  C_14
REMARK    8  A    between atoms: C_21  and  C_22
REMARK                            x       y       z     vdW  Elec       q    Type
REMARK                         _______ _______ _______ _____ _____    ______ ____
ROOT
ATOM      1  C   UNL     1     -29.383 -10.280  18.905  0.00  0.00    +0.247 C 
ATOM      2  O   UNL     1     -28.625 -10.150  17.905  0.00  0.00    -0.270 OA
ATOM      3  N   UNL     1     -29.151 -11.346  19.841  0.00  0.00    -0.290 N 
ATOM      4  C   UNL     1     -29.624 -11.339  21.215  0.00  0.00    +0.109 C 
ATOM      5  C   UNL     1     -29.051 -12.595  21.853  0.00  0.00    +0.021 C 
ATOM      6  C   UNL     1     -28.630 -13.504  20.703  0.00  0.00    +0.029 C 
ATOM      7  C   UNL     1     -28.503 -12.599  19.473  0.00  0.00    +0.107 C 
ENDROOT
BRANCH   7   8
ATOM      8  C   UNL     1     -29.160 -13.223  18.257  0.00  0.00    -0.023 A 
ATOM      9  C   UNL     1     -30.493 -13.668  18.325  0.00  0.00    +0.009 A 
ATOM     10  C   UNL     1     -31.100 -14.261  17.213  0.00  0.00    +0.050 A 
ATOM     11  C   UNL     1     -30.381 -14.409  16.025  0.00  0.00    +0.162 A 
ATOM     12  O   UNL     1     -30.972 -14.990  14.898  0.00  0.00    -0.485 OA
ATOM     13  C   UNL     1     -30.346 -14.920  13.614  0.00  0.00    +0.270 C 
ATOM     14  C   UNL     1     -28.824 -15.062  13.755  0.00  0.00    +0.270 C 
ATOM     15  O   UNL     1     -28.336 -14.178  14.767  0.00  0.00    -0.485 OA
ATOM     16  C   UNL     1     -29.051 -13.977  15.951  0.00  0.00    +0.162 A 
ATOM     17  C   UNL     1     -28.451 -13.360  17.048  0.00  0.00    +0.055 A 
ENDBRANCH   7   8
BRANCH   1  21
ATOM     18  C   UNL     1     -31.847  -6.524  21.073  0.00  0.00    +0.044 C 
ATOM     19  C   UNL     1     -31.826  -7.624  20.043  0.00  0.00    -0.045 A 
ATOM     20  C   UNL     1     -30.658  -8.393  19.923  0.00  0.00    +0.016 A 
ATOM     21  C   UNL     1     -30.584  -9.437  19.003  0.00  0.00    +0.039 A 
ATOM     22  C   UNL     1     -31.676  -9.713  18.181  0.00  0.00    +0.042 A 
ATOM     23  C   UNL     1     -32.861  -8.974  18.277  0.00  0.00    +0.109 A 
ATOM     24  C   UNL     1     -32.936  -7.884  19.191  0.00  0.00    -0.021 A 
ATOM     25  C   UNL     1     -34.189  -7.042  19.289  0.00  0.00    +0.046 C 
BRANCH  23  26
ATOM     26  S   UNL     1     -34.188  -9.479  17.208  0.00  0.00    +0.061 S 
ATOM     27  O   UNL     1     -35.044  -8.321  16.777  0.00  0.00    -0.153 OA
ATOM     28  O   UNL     1     -35.062 -10.431  17.977  0.00  0.00    -0.153 OA
BRANCH  26  29
ATOM     29  N   UNL     1     -33.536 -10.307  15.815  0.00  0.00    -0.183 NA
ATOM     30  C   UNL     1     -34.105  -9.741  14.586  0.00  0.00    +0.131 C 
ATOM     31  C   UNL     1     -33.851 -11.736  15.903  0.00  0.00    +0.131 C 
ENDBRANCH  26  29
ENDBRANCH  23  26
ENDBRANCH   1  21
TORSDOF 4
ENDMDL
MODEL 3
REMARK VINA RESULT:    -5.666      2.285      6.275
REMARK INTER + INTRA:          -5.796
REMARK INTER:                  -5.983
REMARK INTRA:                   0.187
REMARK UNBOUND:                 1.195
REMARK  Name = 
REMARK  8 active torsions:
REMARK  status: ('A' for Active; 'I' for Inactive)
REMARK    1  A    between atoms: C_1  and  C_2
REMARK    2  A    between atoms: C_4  and  C_15
REMARK    3  A    between atoms: C_6  and  S_9
REMARK    4  A    between atoms: C_7  and  C_8
REMARK    5  A    between atoms: S_9  and  N_12
REMARK    6  A    between atoms: N_12  and  C_13
REMARK    7  A    between atoms: N_12  and  C_14
REMARK    8  A    between atoms: C_21  and  C_22
REMARK                            x       y       z     vdW  Elec       q    Type
REMARK                         _______ _______ _______ _____ _____    ______ ____
ROOT
ATOM      1  C   UNL     1     -34.469 -10.962  16.959  0.00  0.00    +0.247 C 
ATOM      2  O   UNL     1     -35.062 -12.065  16.813  0.00  0.00    -0.270 OA
ATOM      3  N   UNL     1     -34.602  -9.943  15.952  0.00  0.00    -0.290 N 
ATOM      4  C   UNL     1     -34.374  -8.528  16.193  0.00  0.00    +0.109 C 
ATOM      5  C   UNL     1     -34.741  -7.827  14.894  0.00  0.00    +0.021 C 
ATOM      6  C   UNL     1     -34.748  -8.905  13.815  0.00  0.00    +0.029 C 
ATOM      7  C   UNL     1     -34.876 -10.242  14.552  0.00  0.00    +0.107 C 
ENDROOT
BRANCH   7   8
ATOM      8  C   UNL     1     -33.904 -11.269  14.006  0.00  0.00    -0.023 A 
ATOM      9  C   UNL     1     -34.238 -12.022  12.866  0.00  0.00    +0.009 A 
ATOM     10  C   UNL     1     -33.354 -12.984  12.368  0.00  0.00    +0.050 A 
ATOM     11  C   UNL     1     -32.129 -13.198  13.002  0.00  0.00    +0.162 A 
ATOM     12  O   UNL     1     -31.224 -14.147  12.514  0.00  0.00    -0.485 OA
ATOM     13  C   UNL     1     -29.878 -14.201  12.990  0.00  0.00    +0.270 C 
ATOM     14  C   UNL     1     -29.832 -13.904  14.496  0.00  0.00    +0.270 C 
ATOM     15  O   UNL     1     -30.579 -12.722  14.789  0.00  0.00    -0.485 OA
ATOM     16  C   UNL     1     -31.791 -12.459  14.142  0.00  0.00    +0.162 A 
ATOM     17  C   UNL     1     -32.657 -11.479  14.626  0.00  0.00    +0.055 A 
ENDBRANCH   7   8
BRANCH   1  21
ATOM     18  C   UNL     1     -32.841  -8.352  20.886  0.00  0.00    +0.044 C 
ATOM     19  C   UNL     1     -32.690  -9.551  19.986  0.00  0.00    -0.045 A 
ATOM     20  C   UNL     1     -33.623  -9.723  18.953  0.00  0.00    +0.016 A 
ATOM     21  C   UNL     1     -33.525 -10.802  18.075  0.00  0.00    +0.039 A 
ATOM     22  C   UNL     1     -32.498 -11.731  18.235  0.00  0.00    +0.042 A 
ATOM     23  C   UNL     1     -31.543 -11.590  19.248  0.00  0.00    +0.109 A 
ATOM     24  C   UNL     1     -31.652 -10.509  20.170  0.00  0.00    -0.021 A 
ATOM     25  C   UNL     1     -30.659 -10.352  21.300  0.00  0.00    +0.046 C 
BRANCH  23  26
ATOM     26  S   UNL     1     -30.258 -12.817  19.290  0.00  0.00    +0.061 S 
ATOM     27  O   UNL     1     -30.280 -13.706  18.078  0.00  0.00    -0.153 OA
ATOM     28  O   UNL     1     -30.489 -13.685  20.496  0.00  0.00    -0.153 OA
BRANCH  26  29
ATOM     29  N   UNL     1     -28.705 -12.034  19.443  0.00  0.00    -0.183 NA
ATOM     30  C   UNL     1     -28.374 -11.333  18.197  0.00  0.00    +0.131 C 
ATOM     31  C   UNL     1     -27.679 -13.036  19.745  0.00  0.00    +0.131 C 
ENDBRANCH  26  29
ENDBRANCH  23  26
ENDBRANCH   1  21
TORSDOF 4
ENDMDL
MODEL 4
REMARK VINA RESULT:    -5.465      2.623      5.422
REMARK INTER + INTRA:          -5.547
REMARK INTER:                  -5.211
REMARK INTRA:                  -0.336
REMARK UNBOUND:                 1.195
REMARK  Name = 
REMARK  8 active torsions:
REMARK  status: ('A' for Active; 'I' for Inactive)
REMARK    1  A    between atoms: C_1  and  C_2
REMARK    2  A    between atoms: C_4  and  C_15
REMARK    3  A    between atoms: C_6  and  S_9
REMARK    4  A    between atoms: C_7  and  C_8
REMARK    5  A    between atoms: S_9  and  N_12
REMARK    6  A    between atoms: N_12  and  C_13
REMARK    7  A    between atoms: N_12  and  C_14
REMARK    8  A    between atoms: C_21  and  C_22
REMARK                            x       y       z     vdW  Elec       q    Type
REMARK                         _______ _______ _______ _____ _____    ______ ____
ROOT
ATOM      1  C   UNL     1     -30.692 -13.665  17.843  0.00  0.00    +0.247 C 
ATOM      2  O   UNL     1     -31.475 -14.296  18.604  0.00  0.00    -0.270 OA
ATOM      3  N   UNL     1     -29.563 -12.970  18.401  0.00  0.00    -0.290 N 
ATOM      4  C   UNL     1     -28.374 -12.613  17.645  0.00  0.00    +0.109 C 
ATOM      5  C   UNL     1     -27.413 -12.006  18.656  0.00  0.00    +0.021 C 
ATOM      6  C   UNL     1     -28.252 -11.635  19.874  0.00  0.00    +0.029 C 
ATOM      7  C   UNL     1     -29.542 -12.454  19.764  0.00  0.00    +0.107 C 
ENDROOT
BRANCH   7   8
ATOM      8  C   UNL     1     -30.763 -11.602  20.050  0.00  0.00    -0.023 A 
ATOM      9  C   UNL     1     -31.741 -12.050  20.956  0.00  0.00    +0.009 A 
ATOM     10  C   UNL     1     -32.879 -11.277  21.211  0.00  0.00    +0.050 A 
ATOM     11  C   UNL     1     -33.045 -10.050  20.566  0.00  0.00    +0.162 A 
ATOM     12  O   UNL     1     -34.170  -9.256  20.814  0.00  0.00    -0.485 OA
ATOM     13  C   UNL     1     -34.235  -7.901  20.364  0.00  0.00    +0.270 C 
ATOM     14  C   UNL     1     -33.576  -7.765  18.984  0.00  0.00    +0.270 C 
ATOM     15  O   UNL     1     -32.291  -8.391  18.985  0.00  0.00    -0.485 OA
ATOM     16  C   UNL     1     -32.081  -9.600  19.655  0.00  0.00    +0.162 A 
ATOM     17  C   UNL     1     -30.932 -10.354  19.419  0.00  0.00    +0.055 A 
ENDBRANCH   7   8
BRANCH   1  21
ATOM     18  C   UNL     1     -29.534 -14.305  13.033  0.00  0.00    +0.044 C 
ATOM     19  C   UNL     1     -30.508 -13.799  14.066  0.00  0.00    -0.045 A 
ATOM     20  C   UNL     1     -30.190 -13.984  15.420  0.00  0.00    +0.016 A 
ATOM     21  C   UNL     1     -31.041 -13.520  16.422  0.00  0.00    +0.039 A 
ATOM     22  C   UNL     1     -32.230 -12.880  16.077  0.00  0.00    +0.042 A 
ATOM     23  C   UNL     1     -32.579 -12.669  14.738  0.00  0.00    +0.109 A 
ATOM     24  C   UNL     1     -31.732 -13.167  13.706  0.00  0.00    -0.021 A 
ATOM     25  C   UNL     1     -32.101 -12.990  12.250  0.00  0.00    +0.046 C 
BRANCH  23  26
ATOM     26  S   UNL     1     -34.094 -11.784  14.452  0.00  0.00    +0.061 S 
ATOM     27  O   UNL     1     -35.062 -11.932  15.592  0.00  0.00    -0.153 OA
ATOM     28  O   UNL     1     -34.742 -12.364  13.225  0.00  0.00    -0.153 OA
BRANCH  26  29
ATOM     29  N   UNL     1     -33.742 -10.098  14.166  0.00  0.00    -0.183 NA
ATOM     30  C   UNL     1     -33.436  -9.429  15.436  0.00  0.00    +0.131 C 
ATOM     31  C   UNL     1     -34.896  -9.459  13.526  0.00  0.00    +0.131 C 
ENDBRANCH  26  29
ENDBRANCH  23  26
ENDBRANCH   1  21
TORSDOF 4
ENDMDL
MODEL 5
REMARK VINA RESULT:    -4.917      3.318      7.481
REMARK INTER + INTRA:          -4.872
REMARK INTER:                  -5.494
REMARK INTRA:                   0.623
REMARK UNBOUND:                 1.195
REMARK  Name = 
REMARK  8 active torsions:
REMARK  status: ('A' for Active; 'I' for Inactive)
REMARK    1  A    between atoms: C_1  and  C_2
REMARK    2  A    between atoms: C_4  and  C_15
REMARK    3  A    between atoms: C_6  and  S_9
REMARK    4  A    between atoms: C_7  and  C_8
REMARK    5  A    between atoms: S_9  and  N_12
REMARK    6  A    between atoms: N_12  and  C_13
REMARK    7  A    between atoms: N_12  and  C_14
REMARK    8  A    between atoms: C_21  and  C_22
REMARK                            x       y       z     vdW  Elec       q    Type
REMARK                         _______ _______ _______ _____ _____    ______ ____
ROOT
ATOM      1  C   UNL     1     -34.411 -11.334  16.552  0.00  0.00    +0.247 C 
ATOM      2  O   UNL     1     -34.974 -12.452  16.396  0.00  0.00    -0.270 OA
ATOM      3  N   UNL     1     -34.570 -10.311  15.554  0.00  0.00    -0.290 N 
ATOM      4  C   UNL     1     -34.380  -8.892  15.807  0.00  0.00    +0.109 C 
ATOM      5  C   UNL     1     -34.766  -8.190  14.514  0.00  0.00    +0.021 C 
ATOM      6  C   UNL     1     -34.746  -9.258  13.425  0.00  0.00    +0.029 C 
ATOM      7  C   UNL     1     -34.839 -10.604  14.151  0.00  0.00    +0.107 C 
ENDROOT
BRANCH   7   8
ATOM      8  C   UNL     1     -33.840 -11.601  13.596  0.00  0.00    -0.023 A 
ATOM      9  C   UNL     1     -34.156 -12.353  12.450  0.00  0.00    +0.009 A 
ATOM     10  C   UNL     1     -33.247 -13.287  11.942  0.00  0.00    +0.050 A 
ATOM     11  C   UNL     1     -32.015 -13.473  12.573  0.00  0.00    +0.162 A 
ATOM     12  O   UNL     1     -31.087 -14.394  12.076  0.00  0.00    -0.485 OA
ATOM     13  C   UNL     1     -29.738 -14.416  12.550  0.00  0.00    +0.270 C 
ATOM     14  C   UNL     1     -29.698 -14.129  14.058  0.00  0.00    +0.270 C 
ATOM     15  O   UNL     1     -30.476 -12.970  14.361  0.00  0.00    -0.485 OA
ATOM     16  C   UNL     1     -31.696 -12.734  13.719  0.00  0.00    +0.162 A 
ATOM     17  C   UNL     1     -32.587 -11.782  14.212  0.00  0.00    +0.055 A 
ENDBRANCH   7   8
BRANCH   1  21
ATOM     18  C   UNL     1     -30.306 -12.772  18.993  0.00  0.00    +0.044 C 
ATOM     19  C   UNL     1     -31.484 -11.839  18.897  0.00  0.00    -0.045 A 
ATOM     20  C   UNL     1     -32.351 -11.980  17.802  0.00  0.00    +0.016 A 
ATOM     21  C   UNL     1     -33.470 -11.159  17.668  0.00  0.00    +0.039 A 
ATOM     22  C   UNL     1     -33.723 -10.175  18.623  0.00  0.00    +0.042 A 
ATOM     23  C   UNL     1     -32.887 -10.008  19.732  0.00  0.00    +0.109 A 
ATOM     24  C   UNL     1     -31.724 -10.820  19.863  0.00  0.00    -0.021 A 
ATOM     25  C   UNL     1     -30.779 -10.637  21.030  0.00  0.00    +0.046 C 
BRANCH  23  26
ATOM     26  S   UNL     1     -33.370  -8.755  20.896  0.00  0.00    +0.061 S 
ATOM     27  O   UNL     1     -32.330  -8.535  21.959  0.00  0.00    -0.153 OA
ATOM     28  O   UNL     1     -34.628  -9.219  21.578  0.00  0.00    -0.153 OA
BRANCH  26  29
ATOM     29  N   UNL     1     -33.701  -7.265  20.049  0.00  0.00    -0.183 NA
ATOM     30  C   UNL     1     -32.440  -6.619  19.663  0.00  0.00    +0.131 C 
ATOM     31  C   UNL     1     -34.478  -6.372  20.914  0.00  0.00    +0.131 C 
ENDBRANCH  26  29
ENDBRANCH  23  26
ENDBRANCH   1  21
TORSDOF 4
ENDMDL
MODEL 6
REMARK VINA RESULT:    -4.818      2.382      6.166
REMARK INTER + INTRA:          -4.749
REMARK INTER:                  -6.028
REMARK INTRA:                   1.279
REMARK UNBOUND:                 1.195
REMARK  Name = 
REMARK  8 active torsions:
REMARK  status: ('A' for Active; 'I' for Inactive)
REMARK    1  A    between atoms: C_1  and  C_2
REMARK    2  A    between atoms: C_4  and  C_15
REMARK    3  A    between atoms: C_6  and  S_9
REMARK    4  A    between atoms: C_7  and  C_8
REMARK    5  A    between atoms: S_9  and  N_12
REMARK    6  A    between atoms: N_12  and  C_13
REMARK    7  A    between atoms: N_12  and  C_14
REMARK    8  A    between atoms: C_21  and  C_22
REMARK                            x       y       z     vdW  Elec       q    Type
REMARK                         _______ _______ _______ _____ _____    ______ ____
ROOT
ATOM      1  C   UNL     1     -32.945 -12.445  17.420  0.00  0.00    +0.247 C 
ATOM      2  O   UNL     1     -33.303 -13.637  17.217  0.00  0.00    -0.270 OA
ATOM      3  N   UNL     1     -33.325 -11.418  16.488  0.00  0.00    -0.290 N 
ATOM      4  C   UNL     1     -33.383 -10.003  16.816  0.00  0.00    +0.109 C 
ATOM      5  C   UNL     1     -33.939  -9.317  15.577  0.00  0.00    +0.021 C 
ATOM      6  C   UNL     1     -33.769 -10.306  14.429  0.00  0.00    +0.029 C 
ATOM      7  C   UNL     1     -33.589 -11.682  15.079  0.00  0.00    +0.107 C 
ENDROOT
BRANCH   7   8
ATOM      8  C   UNL     1     -32.449 -12.451  14.439  0.00  0.00    -0.023 A 
ATOM      9  C   UNL     1     -32.509 -12.799  13.077  0.00  0.00    +0.009 A 
ATOM     10  C   UNL     1     -31.469 -13.524  12.484  0.00  0.00    +0.050 A 
ATOM     11  C   UNL     1     -30.362 -13.901  13.246  0.00  0.00    +0.162 A 
ATOM     12  O   UNL     1     -29.306 -14.616  12.671  0.00  0.00    -0.485 OA
ATOM     13  C   UNL     1     -28.066 -14.789  13.360  0.00  0.00    +0.270 C 
ATOM     14  C   UNL     1     -28.314 -14.997  14.861  0.00  0.00    +0.270 C 
ATOM     15  O   UNL     1     -29.202 -13.995  15.359  0.00  0.00    -0.485 OA
ATOM     16  C   UNL     1     -30.298 -13.566  14.604  0.00  0.00    +0.162 A 
ATOM     17  C   UNL     1     -31.319 -12.820  15.193  0.00  0.00    +0.055 A 
ENDBRANCH   7   8
BRANCH   1  21
ATOM     18  C   UNL     1     -32.115 -10.819  22.062  0.00  0.00    +0.044 C 
ATOM     19  C   UNL     1     -31.560 -11.360  20.770  0.00  0.00    -0.045 A 
ATOM     20  C   UNL     1     -32.463 -11.675  19.743  0.00  0.00    +0.016 A 
ATOM     21  C   UNL     1     -32.009 -12.159  18.518  0.00  0.00    +0.039 A 
ATOM     22  C   UNL     1     -30.643 -12.349  18.313  0.00  0.00    +0.042 A 
ATOM     23  C   UNL     1     -29.710 -12.039  19.309  0.00  0.00    +0.109 A 
ATOM     24  C   UNL     1     -30.165 -11.573  20.576  0.00  0.00    -0.021 A 
ATOM     25  C   UNL     1     -29.184 -11.267  21.686  0.00  0.00    +0.046 C 
BRANCH  23  26
ATOM     26  S   UNL     1     -28.001 -12.274  18.882  0.00  0.00    +0.061 S 
ATOM     27  O   UNL     1     -27.341 -10.994  18.449  0.00  0.00    -0.153 OA
ATOM     28  O   UNL     1     -27.942 -13.232  17.725  0.00  0.00    -0.153 OA
BRANCH  26  29
ATOM     29  N   UNL     1     -27.149 -12.969  20.239  0.00  0.00    -0.183 NA
ATOM     30  C   UNL     1     -25.707 -12.981  19.970  0.00  0.00    +0.131 C 
ATOM     31  C   UNL     1     -27.629 -14.335  20.470  0.00  0.00    +0.131 C 
ENDBRANCH  26  29
ENDBRANCH  23  26
ENDBRANCH   1  21
TORSDOF 4
ENDMDL
MODEL 7
REMARK VINA RESULT:    -4.521      3.488      7.273
REMARK INTER + INTRA:          -4.383
REMARK INTER:                  -4.717
REMARK INTRA:                   0.334
REMARK UNBOUND:                 1.195
REMARK  Name = 
REMARK  8 active torsions:
REMARK  status: ('A' for Active; 'I' for Inactive)
REMARK    1  A    between atoms: C_1  and  C_2
REMARK    2  A    between atoms: C_4  and  C_15
REMARK    3  A    between atoms: C_6  and  S_9
REMARK    4  A    between atoms: C_7  and  C_8
REMARK    5  A    between atoms: S_9  and  N_12
REMARK    6  A    between atoms: N_12  and  C_13
REMARK    7  A    between atoms: N_12  and  C_14
REMARK    8  A    between atoms: C_21  and  C_22
REMARK                            x       y       z     vdW  Elec       q    Type
REMARK                         _______ _______ _______ _____ _____    ______ ____
ROOT
ATOM      1  C   UNL     1     -29.634 -10.350  19.763  0.00  0.00    +0.247 C 
ATOM      2  O   UNL     1     -29.198  -9.924  18.659  0.00  0.00    -0.270 OA
ATOM      3  N   UNL     1     -28.988 -11.465  20.401  0.00  0.00    -0.290 N 
ATOM      4  C   UNL     1     -29.079 -11.752  21.823  0.00  0.00    +0.109 C 
ATOM      5  C   UNL     1     -28.156 -12.937  22.062  0.00  0.00    +0.021 C 
ATOM      6  C   UNL     1     -27.904 -13.564  20.696  0.00  0.00    +0.029 C 
ATOM      7  C   UNL     1     -28.257 -12.488  19.664  0.00  0.00    +0.107 C 
ENDROOT
BRANCH   7   8
ATOM      8  C   UNL     1     -29.095 -13.058  18.536  0.00  0.00    -0.023 A 
ATOM      9  C   UNL     1     -30.429 -13.438  18.769  0.00  0.00    +0.009 A 
ATOM     10  C   UNL     1     -31.202 -13.981  17.737  0.00  0.00    +0.050 A 
ATOM     11  C   UNL     1     -30.649 -14.145  16.466  0.00  0.00    +0.162 A 
ATOM     12  O   UNL     1     -31.407 -14.676  15.417  0.00  0.00    -0.485 OA
ATOM     13  C   UNL     1     -30.946 -14.617  14.065  0.00  0.00    +0.270 C 
ATOM     14  C   UNL     1     -29.428 -14.837  14.009  0.00  0.00    +0.270 C 
ATOM     15  O   UNL     1     -28.771 -13.995  14.959  0.00  0.00    -0.485 OA
ATOM     16  C   UNL     1     -29.319 -13.779  16.227  0.00  0.00    +0.162 A 
ATOM     17  C   UNL     1     -28.553 -13.210  17.245  0.00  0.00    +0.055 A 
ENDBRANCH   7   8
BRANCH   1  21
ATOM     18  C   UNL     1     -34.016 -11.047  22.044  0.00  0.00    +0.044 C 
ATOM     19  C   UNL     1     -33.044 -10.102  21.386  0.00  0.00    -0.045 A 
ATOM     20  C   UNL     1     -31.824 -10.623  20.926  0.00  0.00    +0.016 A 
ATOM     21  C   UNL     1     -30.893  -9.803  20.292  0.00  0.00    +0.039 A 
ATOM     22  C   UNL     1     -31.167  -8.446  20.124  0.00  0.00    +0.042 A 
ATOM     23  C   UNL     1     -32.375  -7.891  20.561  0.00  0.00    +0.109 A 
ATOM     24  C   UNL     1     -33.320  -8.712  21.240  0.00  0.00    -0.021 A 
ATOM     25  C   UNL     1     -34.617  -8.133  21.759  0.00  0.00    +0.046 C 
BRANCH  23  26
ATOM     26  S   UNL     1     -32.610  -6.161  20.224  0.00  0.00    +0.061 S 
ATOM     27  O   UNL     1     -31.307  -5.438  20.025  0.00  0.00    -0.153 OA
ATOM     28  O   UNL     1     -33.294  -5.549  21.415  0.00  0.00    -0.153 OA
BRANCH  26  29
ATOM     29  N   UNL     1     -33.632  -5.971  18.822  0.00  0.00    -0.183 NA
ATOM     30  C   UNL     1     -34.802  -5.153  19.163  0.00  0.00    +0.131 C 
ATOM     31  C   UNL     1     -34.062  -7.290  18.347  0.00  0.00    +0.131 C 
ENDBRANCH  26  29
ENDBRANCH  23  26
ENDBRANCH   1  21
TORSDOF 4
ENDMDL
MODEL 8
REMARK VINA RESULT:    -3.657      3.468      6.016
REMARK INTER + INTRA:          -3.317
REMARK INTER:                  -4.045
REMARK INTRA:                   0.727
REMARK UNBOUND:                 1.195
REMARK  Name = 
REMARK  8 active torsions:
REMARK  status: ('A' for Active; 'I' for Inactive)
REMARK    1  A    between atoms: C_1  and  C_2
REMARK    2  A    between atoms: C_4  and  C_15
REMARK    3  A    between atoms: C_6  and  S_9
REMARK    4  A    between atoms: C_7  and  C_8
REMARK    5  A    between atoms: S_9  and  N_12
REMARK    6  A    between atoms: N_12  and  C_13
REMARK    7  A    between atoms: N_12  and  C_14
REMARK    8  A    between atoms: C_21  and  C_22
REMARK                            x       y       z     vdW  Elec       q    Type
REMARK                         _______ _______ _______ _____ _____    ______ ____
ROOT
ATOM      1  C   UNL     1     -33.603 -11.177  17.240  0.00  0.00    +0.247 C 
ATOM      2  O   UNL     1     -33.836 -11.949  18.209  0.00  0.00    -0.270 OA
ATOM      3  N   UNL     1     -32.823 -11.647  16.126  0.00  0.00    -0.290 N 
ATOM      4  C   UNL     1     -32.866 -11.059  14.798  0.00  0.00    +0.109 C 
ATOM      5  C   UNL     1     -31.982 -11.941  13.930  0.00  0.00    +0.021 C 
ATOM      6  C   UNL     1     -31.115 -12.751  14.888  0.00  0.00    +0.029 C 
ATOM      7  C   UNL     1     -31.824 -12.702  16.245  0.00  0.00    +0.107 C 
ENDROOT
BRANCH   7   8
ATOM      8  C   UNL     1     -30.848 -12.413  17.368  0.00  0.00    -0.023 A 
ATOM      9  C   UNL     1     -30.095 -11.224  17.362  0.00  0.00    +0.009 A 
ATOM     10  C   UNL     1     -29.180 -10.958  18.386  0.00  0.00    +0.050 A 
ATOM     11  C   UNL     1     -29.012 -11.876  19.424  0.00  0.00    +0.162 A 
ATOM     12  O   UNL     1     -28.110 -11.626  20.463  0.00  0.00    -0.485 OA
ATOM     13  C   UNL     1     -28.109 -12.421  21.651  0.00  0.00    +0.270 C 
ATOM     14  C   UNL     1     -28.389 -13.891  21.310  0.00  0.00    +0.270 C 
ATOM     15  O   UNL     1     -29.533 -13.992  20.459  0.00  0.00    -0.485 OA
ATOM     16  C   UNL     1     -29.750 -13.066  19.434  0.00  0.00    +0.162 A 
ATOM     17  C   UNL     1     -30.685 -13.322  18.431  0.00  0.00    +0.055 A 
ENDBRANCH   7   8
BRANCH   1  21
ATOM     18  C   UNL     1     -35.030  -6.927  15.052  0.00  0.00    +0.044 C 
ATOM     19  C   UNL     1     -34.675  -7.668  16.316  0.00  0.00    -0.045 A 
ATOM     20  C   UNL     1     -34.349  -9.029  16.214  0.00  0.00    +0.016 A 
ATOM     21  C   UNL     1     -33.994  -9.763  17.345  0.00  0.00    +0.039 A 
ATOM     22  C   UNL     1     -33.976  -9.144  18.593  0.00  0.00    +0.042 A 
ATOM     23  C   UNL     1     -34.286  -7.787  18.735  0.00  0.00    +0.109 A 
ATOM     24  C   UNL     1     -34.682  -7.034  17.591  0.00  0.00    -0.021 A 
ATOM     25  C   UNL     1     -35.062  -5.576  17.718  0.00  0.00    +0.046 C 
BRANCH  23  26
ATOM     26  S   UNL     1     -34.162  -7.121  20.378  0.00  0.00    +0.061 S 
ATOM     27  O   UNL     1     -34.738  -8.048  21.412  0.00  0.00    -0.153 OA
ATOM     28  O   UNL     1     -34.953  -5.843  20.419  0.00  0.00    -0.153 OA
BRANCH  26  29
ATOM     29  N   UNL     1     -32.491  -6.766  20.741  0.00  0.00    -0.183 NA
ATOM     30  C   UNL     1     -32.003  -5.701  19.857  0.00  0.00    +0.131 C 
ATOM     31  C   UNL     1     -31.683  -7.977  20.564  0.00  0.00    +0.131 C 
ENDBRANCH  26  29
ENDBRANCH  23  26
ENDBRANCH   1  21
TORSDOF 4
ENDMDL
