MODEL 1
REMARK VINA RESULT:    -4.562      0.000      0.000
REMARK INTER + INTRA:          -8.458
REMARK INTER:                  -6.696
REMARK INTRA:                  -1.762
REMARK UNBOUND:                -1.762
REMARK  Name = 
REMARK  9 active torsions:
REMARK  status: ('A' for Active; 'I' for Inactive)
REMARK    1  A    between atoms: C_1  and  C_2
REMARK    2  A    between atoms: C_2  and  C_3
REMARK    3  A    between atoms: C_3  and  O_4
REMARK    4  A    between atoms: O_4  and  C_5
REMARK    5  A    between atoms: C_10  and  O_11
REMARK    6  A    between atoms: O_11  and  C_12
REMARK    7  A    between atoms: C_12  and  C_13
REMARK    8  A    between atoms: N_15  and  C_16
REMARK    9  A    between atoms: C_19  and  C_22
REMARK                            x       y       z     vdW  Elec       q    Type
REMARK                         _______ _______ _______ _____ _____    ______ ____
ROOT
ATOM      1  C   UNL     1     -31.206 -10.350  17.359  0.00  0.00    +0.255 C 
ATOM      2  O   UNL     1     -31.206  -9.724  18.453  0.00  0.00    -0.272 OA
ATOM      3  N   UNL     1     -30.309 -11.453  17.149  0.00  0.00    -0.283 N 
ATOM      4  H   UNL     1     -30.104 -11.737  16.164  0.00  0.00    +0.155 HD
ENDROOT
BRANCH   3   5
ATOM      5  C   UNL     1     -29.592 -12.119  18.204  0.00  0.00    +0.034 A 
ATOM      6  C   UNL     1     -30.301 -12.885  19.139  0.00  0.00    +0.024 A 
ATOM      7  C   UNL     1     -29.633 -13.525  20.186  0.00  0.00    +0.015 A 
ATOM      8  C   UNL     1     -28.240 -13.394  20.331  0.00  0.00    +0.037 A 
ATOM      9  C   UNL     1     -27.532 -12.615  19.397  0.00  0.00    +0.015 A 
ATOM     10  C   UNL     1     -28.202 -11.975  18.350  0.00  0.00    +0.024 A 
BRANCH   8  11
ATOM     11  C   UNL     1     -27.512 -14.070  21.432  0.00  0.00    +0.242 C 
ATOM     12  N   UNL     1     -26.180 -13.691  21.791  0.00  0.00    -0.325 N 
ATOM     13  O   UNL     1     -28.067 -15.011  22.062  0.00  0.00    -0.270 OA
ATOM     14  H   UNL     1     -25.618 -13.034  21.207  0.00  0.00    +0.145 HD
ATOM     15  H   UNL     1     -25.713 -14.144  22.609  0.00  0.00    +0.145 HD
ENDBRANCH   8  11
ENDBRANCH   3   5
BRANCH   1  16
ATOM     16  C   UNL     1     -32.106  -9.891  16.255  0.00  0.00    +0.325 C 
BRANCH  16  17
ATOM     17  O   UNL     1     -33.006 -10.940  15.915  0.00  0.00    -0.479 OA
BRANCH  17  23
ATOM     18  C   UNL     1     -32.337 -12.478  14.181  0.00  0.00    +0.162 A 
ATOM     19  C   UNL     1     -32.496 -13.006  12.884  0.00  0.00    +0.049 A 
ATOM     20  C   UNL     1     -33.487 -12.506  12.036  0.00  0.00    +0.004 A 
ATOM     21  C   UNL     1     -34.328 -11.481  12.470  0.00  0.00    +0.004 A 
ATOM     22  C   UNL     1     -34.183 -10.952  13.753  0.00  0.00    +0.049 A 
ATOM     23  C   UNL     1     -33.186 -11.448  14.618  0.00  0.00    +0.163 A 
BRANCH  18  24
ATOM     24  O   UNL     1     -31.357 -12.949  15.073  0.00  0.00    -0.488 OA
BRANCH  24  25
ATOM     25  C   UNL     1     -31.171 -14.311  15.464  0.00  0.00    +0.229 C 
BRANCH  25  27
ATOM     26  C   UNL     1     -28.971 -14.667  14.258  0.00  0.00    +0.007 C 
ATOM     27  C   UNL     1     -29.683 -14.650  15.609  0.00  0.00    +0.038 C 
ENDBRANCH  25  27
ENDBRANCH  24  25
ENDBRANCH  18  24
ENDBRANCH  17  23
ENDBRANCH  16  17
ENDBRANCH   1  16
TORSDOF 8
ENDMDL
MODEL 2
REMARK VINA RESULT:    -4.514      1.655      2.095
REMARK INTER + INTRA:          -8.388
REMARK INTER:                  -6.563
REMARK INTRA:                  -1.825
REMARK UNBOUND:                -1.762
REMARK  Name = 
REMARK  9 active torsions:
REMARK  status: ('A' for Active; 'I' for Inactive)
REMARK    1  A    between atoms: C_1  and  C_2
REMARK    2  A    between atoms: C_2  and  C_3
REMARK    3  A    between atoms: C_3  and  O_4
REMARK    4  A    between atoms: O_4  and  C_5
REMARK    5  A    between atoms: C_10  and  O_11
REMARK    6  A    between atoms: O_11  and  C_12
REMARK    7  A    between atoms: C_12  and  C_13
REMARK    8  A    between atoms: N_15  and  C_16
REMARK    9  A    between atoms: C_19  and  C_22
REMARK                            x       y       z     vdW  Elec       q    Type
REMARK                         _______ _______ _______ _____ _____    ______ ____
ROOT
ATOM      1  C   UNL     1     -30.692  -9.561  18.924  0.00  0.00    +0.255 C 
ATOM      2  O   UNL     1     -29.826  -8.858  19.512  0.00  0.00    -0.272 OA
ATOM      3  N   UNL     1     -30.425 -10.938  18.612  0.00  0.00    -0.283 N 
ATOM      4  H   UNL     1     -31.002 -11.391  17.867  0.00  0.00    +0.155 HD
ENDROOT
BRANCH   3   5
ATOM      5  C   UNL     1     -29.346 -11.698  19.184  0.00  0.00    +0.034 A 
ATOM      6  C   UNL     1     -29.563 -12.418  20.367  0.00  0.00    +0.024 A 
ATOM      7  C   UNL     1     -28.526 -13.147  20.956  0.00  0.00    +0.015 A 
ATOM      8  C   UNL     1     -27.242 -13.154  20.382  0.00  0.00    +0.037 A 
ATOM      9  C   UNL     1     -27.024 -12.420  19.201  0.00  0.00    +0.015 A 
ATOM     10  C   UNL     1     -28.062 -11.691  18.613  0.00  0.00    +0.024 A 
BRANCH   8  11
ATOM     11  C   UNL     1     -26.131 -13.926  20.989  0.00  0.00    +0.242 C 
ATOM     12  N   UNL     1     -26.377 -15.057  21.828  0.00  0.00    -0.325 N 
ATOM     13  O   UNL     1     -24.938 -13.576  20.775  0.00  0.00    -0.270 OA
ATOM     14  H   UNL     1     -27.336 -15.294  22.166  0.00  0.00    +0.145 HD
ATOM     15  H   UNL     1     -25.575 -15.617  22.194  0.00  0.00    +0.145 HD
ENDBRANCH   8  11
ENDBRANCH   3   5
BRANCH   1  16
ATOM     16  C   UNL     1     -31.977  -8.926  18.495  0.00  0.00    +0.325 C 
BRANCH  16  17
ATOM     17  O   UNL     1     -32.844  -9.927  17.970  0.00  0.00    -0.479 OA
BRANCH  17  23
ATOM     18  C   UNL     1     -32.876 -10.985  15.804  0.00  0.00    +0.162 A 
ATOM     19  C   UNL     1     -33.341 -11.040  14.474  0.00  0.00    +0.049 A 
ATOM     20  C   UNL     1     -34.233 -10.075  13.999  0.00  0.00    +0.004 A 
ATOM     21  C   UNL     1     -34.673  -9.053  14.840  0.00  0.00    +0.004 A 
ATOM     22  C   UNL     1     -34.223  -8.990  16.160  0.00  0.00    +0.049 A 
ATOM     23  C   UNL     1     -33.322  -9.957  16.651  0.00  0.00    +0.163 A 
BRANCH  18  24
ATOM     24  O   UNL     1     -31.980 -11.933  16.329  0.00  0.00    -0.488 OA
BRANCH  24  25
ATOM     25  C   UNL     1     -30.916 -12.562  15.612  0.00  0.00    +0.229 C 
BRANCH  25  27
ATOM     26  C   UNL     1     -29.287 -14.503  15.612  0.00  0.00    +0.007 C 
ATOM     27  C   UNL     1     -30.556 -13.919  16.228  0.00  0.00    +0.038 C 
ENDBRANCH  25  27
ENDBRANCH  24  25
ENDBRANCH  18  24
ENDBRANCH  17  23
ENDBRANCH  16  17
ENDBRANCH   1  16
TORSDOF 8
ENDMDL
MODEL 3
REMARK VINA RESULT:    -4.419      2.655      4.763
REMARK INTER + INTRA:          -8.249
REMARK INTER:                  -6.547
REMARK INTRA:                  -1.702
REMARK UNBOUND:                -1.762
REMARK  Name = 
REMARK  9 active torsions:
REMARK  status: ('A' for Active; 'I' for Inactive)
REMARK    1  A    between atoms: C_1  and  C_2
REMARK    2  A    between atoms: C_2  and  C_3
REMARK    3  A    between atoms: C_3  and  O_4
REMARK    4  A    between atoms: O_4  and  C_5
REMARK    5  A    between atoms: C_10  and  O_11
REMARK    6  A    between atoms: O_11  and  C_12
REMARK    7  A    between atoms: C_12  and  C_13
REMARK    8  A    between atoms: N_15  and  C_16
REMARK    9  A    between atoms: C_19  and  C_22
REMARK                            x       y       z     vdW  Elec       q    Type
REMARK                         _______ _______ _______ _____ _____    ______ ____
ROOT
ATOM      1  C   UNL     1     -32.571 -11.675  14.593  0.00  0.00    +0.255 C 
ATOM      2  O   UNL     1     -33.453 -11.989  15.438  0.00  0.00    -0.272 OA
ATOM      3  N   UNL     1     -31.619 -10.639  14.883  0.00  0.00    -0.283 N 
ATOM      4  H   UNL     1     -31.126 -10.189  14.078  0.00  0.00    +0.155 HD
ENDROOT
BRANCH   3   5
ATOM      5  C   UNL     1     -31.381 -10.109  16.198  0.00  0.00    +0.034 A 
ATOM      6  C   UNL     1     -30.143 -10.329  16.815  0.00  0.00    +0.024 A 
ATOM      7  C   UNL     1     -29.893  -9.844  18.102  0.00  0.00    +0.015 A 
ATOM      8  C   UNL     1     -30.888  -9.144  18.807  0.00  0.00    +0.037 A 
ATOM      9  C   UNL     1     -32.135  -8.935  18.191  0.00  0.00    +0.015 A 
ATOM     10  C   UNL     1     -32.384  -9.420  16.904  0.00  0.00    +0.024 A 
BRANCH   8  11
ATOM     11  C   UNL     1     -30.640  -8.617  20.172  0.00  0.00    +0.242 C 
ATOM     12  N   UNL     1     -29.943  -9.387  21.156  0.00  0.00    -0.325 N 
ATOM     13  O   UNL     1     -31.061  -7.470  20.483  0.00  0.00    -0.270 OA
ATOM     14  H   UNL     1     -29.714 -10.394  21.006  0.00  0.00    +0.145 HD
ATOM     15  H   UNL     1     -29.732  -8.968  22.089  0.00  0.00    +0.145 HD
ENDBRANCH   8  11
ENDBRANCH   3   5
BRANCH   1  16
ATOM     16  C   UNL     1     -32.569 -12.349  13.257  0.00  0.00    +0.325 C 
BRANCH  16  17
ATOM     17  O   UNL     1     -32.142 -13.699  13.413  0.00  0.00    -0.479 OA
BRANCH  17  23
ATOM     18  C   UNL     1     -30.375 -14.464  14.864  0.00  0.00    +0.162 A 
ATOM     19  C   UNL     1     -29.040 -14.871  15.059  0.00  0.00    +0.049 A 
ATOM     20  C   UNL     1     -28.149 -14.907  13.983  0.00  0.00    +0.004 A 
ATOM     21  C   UNL     1     -28.579 -14.541  12.707  0.00  0.00    +0.004 A 
ATOM     22  C   UNL     1     -29.899 -14.140  12.500  0.00  0.00    +0.049 A 
ATOM     23  C   UNL     1     -30.807 -14.100  13.579  0.00  0.00    +0.163 A 
BRANCH  18  24
ATOM     24  O   UNL     1     -31.310 -14.415  15.914  0.00  0.00    -0.488 OA
BRANCH  24  25
ATOM     25  C   UNL     1     -31.010 -14.558  17.304  0.00  0.00    +0.229 C 
BRANCH  25  27
ATOM     26  C   UNL     1     -30.853 -13.188  19.431  0.00  0.00    +0.007 C 
ATOM     27  C   UNL     1     -31.610 -13.409  18.123  0.00  0.00    +0.038 C 
ENDBRANCH  25  27
ENDBRANCH  24  25
ENDBRANCH  18  24
ENDBRANCH  17  23
ENDBRANCH  16  17
ENDBRANCH   1  16
TORSDOF 8
ENDMDL
MODEL 4
REMARK VINA RESULT:    -3.932      2.387      7.813
REMARK INTER + INTRA:          -7.533
REMARK INTER:                  -6.761
REMARK INTRA:                  -0.772
REMARK UNBOUND:                -1.762
REMARK  Name = 
REMARK  9 active torsions:
REMARK  status: ('A' for Active; 'I' for Inactive)
REMARK    1  A    between atoms: C_1  and  C_2
REMARK    2  A    between atoms: C_2  and  C_3
REMARK    3  A    between atoms: C_3  and  O_4
REMARK    4  A    between atoms: O_4  and  C_5
REMARK    5  A    between atoms: C_10  and  O_11
REMARK    6  A    between atoms: O_11  and  C_12
REMARK    7  A    between atoms: C_12  and  C_13
REMARK    8  A    between atoms: N_15  and  C_16
REMARK    9  A    between atoms: C_19  and  C_22
REMARK                            x       y       z     vdW  Elec       q    Type
REMARK                         _______ _______ _______ _____ _____    ______ ____
ROOT
ATOM      1  C   UNL     1     -29.761 -10.556  17.164  0.00  0.00    +0.255 C 
ATOM      2  O   UNL     1     -30.181  -9.465  16.690  0.00  0.00    -0.272 OA
ATOM      3  N   UNL     1     -30.406 -11.795  16.827  0.00  0.00    -0.283 N 
ATOM      4  H   UNL     1     -30.255 -12.613  17.459  0.00  0.00    +0.155 HD
ENDROOT
BRANCH   3   5
ATOM      5  C   UNL     1     -31.331 -11.949  15.736  0.00  0.00    +0.034 A 
ATOM      6  C   UNL     1     -32.548 -11.254  15.763  0.00  0.00    +0.024 A 
ATOM      7  C   UNL     1     -33.474 -11.402  14.727  0.00  0.00    +0.015 A 
ATOM      8  C   UNL     1     -33.210 -12.268  13.651  0.00  0.00    +0.037 A 
ATOM      9  C   UNL     1     -31.993 -12.975  13.633  0.00  0.00    +0.015 A 
ATOM     10  C   UNL     1     -31.067 -12.825  14.669  0.00  0.00    +0.024 A 
BRANCH   8  11
ATOM     11  C   UNL     1     -34.178 -12.434  12.539  0.00  0.00    +0.242 C 
ATOM     12  N   UNL     1     -35.046 -11.371  12.138  0.00  0.00    -0.325 N 
ATOM     13  O   UNL     1     -34.253 -13.540  11.938  0.00  0.00    -0.270 OA
ATOM     14  H   UNL     1     -35.138 -10.495  12.697  0.00  0.00    +0.145 HD
ATOM     15  H   UNL     1     -35.676 -11.496  11.314  0.00  0.00    +0.145 HD
ENDBRANCH   8  11
ENDBRANCH   3   5
BRANCH   1  16
ATOM     16  C   UNL     1     -28.623 -10.538  18.135  0.00  0.00    +0.325 C 
BRANCH  16  17
ATOM     17  O   UNL     1     -29.025 -11.178  19.342  0.00  0.00    -0.479 OA
BRANCH  17  23
ATOM     18  C   UNL     1     -28.976 -12.955  20.970  0.00  0.00    +0.162 A 
ATOM     19  C   UNL     1     -28.299 -14.016  21.607  0.00  0.00    +0.049 A 
ATOM     20  C   UNL     1     -26.991 -14.338  21.240  0.00  0.00    +0.004 A 
ATOM     21  C   UNL     1     -26.346 -13.613  20.237  0.00  0.00    +0.004 A 
ATOM     22  C   UNL     1     -27.007 -12.564  19.596  0.00  0.00    +0.049 A 
ATOM     23  C   UNL     1     -28.327 -12.228  19.959  0.00  0.00    +0.163 A 
BRANCH  18  24
ATOM     24  O   UNL     1     -30.294 -12.594  21.303  0.00  0.00    -0.488 OA
BRANCH  24  25
ATOM     25  C   UNL     1     -30.713 -11.314  21.780  0.00  0.00    +0.229 C 
BRANCH  25  27
ATOM     26  C   UNL     1     -32.470 -11.861  20.036  0.00  0.00    +0.007 C 
ATOM     27  C   UNL     1     -32.013 -10.866  21.101  0.00  0.00    +0.038 C 
ENDBRANCH  25  27
ENDBRANCH  24  25
ENDBRANCH  18  24
ENDBRANCH  17  23
ENDBRANCH  16  17
ENDBRANCH   1  16
TORSDOF 8
ENDMDL
MODEL 5
REMARK VINA RESULT:    -3.843      2.951      5.529
REMARK INTER + INTRA:          -7.402
REMARK INTER:                  -5.872
REMARK INTRA:                  -1.530
REMARK UNBOUND:                -1.762
REMARK  Name = 
REMARK  9 active torsions:
REMARK  status: ('A' for Active; 'I' for Inactive)
REMARK    1  A    between atoms: C_1  and  C_2
REMARK    2  A    between atoms: C_2  and  C_3
REMARK    3  A    between atoms: C_3  and  O_4
REMARK    4  A    between atoms: O_4  and  C_5
REMARK    5  A    between atoms: C_10  and  O_11
REMARK    6  A    between atoms: O_11  and  C_12
REMARK    7  A    between atoms: C_12  and  C_13
REMARK    8  A    between atoms: N_15  and  C_16
REMARK    9  A    between atoms: C_19  and  C_22
REMARK                            x       y       z     vdW  Elec       q    Type
REMARK                         _______ _______ _______ _____ _____    ______ ____
ROOT
ATOM      1  C   UNL     1     -30.972 -13.289  17.986  0.00  0.00    +0.255 C 
ATOM      2  O   UNL     1     -30.153 -12.330  17.981  0.00  0.00    -0.272 OA
ATOM      3  N   UNL     1     -32.183 -13.211  18.756  0.00  0.00    -0.283 N 
ATOM      4  H   UNL     1     -32.668 -14.106  18.996  0.00  0.00    +0.155 HD
ENDROOT
BRANCH   3   5
ATOM      5  C   UNL     1     -32.709 -11.991  19.306  0.00  0.00    +0.034 A 
ATOM      6  C   UNL     1     -33.439 -11.124  18.483  0.00  0.00    +0.024 A 
ATOM      7  C   UNL     1     -33.943  -9.922  18.987  0.00  0.00    +0.015 A 
ATOM      8  C   UNL     1     -33.709  -9.553  20.324  0.00  0.00    +0.037 A 
ATOM      9  C   UNL     1     -32.965 -10.420  21.145  0.00  0.00    +0.015 A 
ATOM     10  C   UNL     1     -32.462 -11.622  20.640  0.00  0.00    +0.024 A 
BRANCH   8  11
ATOM     11  C   UNL     1     -34.240  -8.284  20.878  0.00  0.00    +0.242 C 
ATOM     12  N   UNL     1     -35.057  -7.410  20.095  0.00  0.00    -0.325 N 
ATOM     13  O   UNL     1     -33.959  -7.954  22.062  0.00  0.00    -0.270 OA
ATOM     14  H   UNL     1     -35.190  -7.551  19.069  0.00  0.00    +0.145 HD
ATOM     15  H   UNL     1     -35.466  -6.552  20.529  0.00  0.00    +0.145 HD
ENDBRANCH   8  11
ENDBRANCH   3   5
BRANCH   1  16
ATOM     16  C   UNL     1     -30.637 -14.537  17.231  0.00  0.00    +0.325 C 
BRANCH  16  17
ATOM     17  O   UNL     1     -31.051 -14.393  15.877  0.00  0.00    -0.479 OA
BRANCH  17  23
ATOM     18  C   UNL     1     -30.694 -14.108  13.509  0.00  0.00    +0.162 A 
ATOM     19  C   UNL     1     -29.858 -14.189  12.377  0.00  0.00    +0.049 A 
ATOM     20  C   UNL     1     -28.543 -14.645  12.504  0.00  0.00    +0.004 A 
ATOM     21  C   UNL     1     -28.049 -15.020  13.754  0.00  0.00    +0.004 A 
ATOM     22  C   UNL     1     -28.867 -14.941  14.882  0.00  0.00    +0.049 A 
ATOM     23  C   UNL     1     -30.196 -14.484  14.767  0.00  0.00    +0.163 A 
BRANCH  18  24
ATOM     24  O   UNL     1     -32.023 -13.654  13.433  0.00  0.00    -0.488 OA
BRANCH  24  25
ATOM     25  C   UNL     1     -32.432 -12.311  13.165  0.00  0.00    +0.229 C 
BRANCH  25  27
ATOM     26  C   UNL     1     -31.706 -10.816  15.078  0.00  0.00    +0.007 C 
ATOM     27  C   UNL     1     -32.861 -11.593  14.449  0.00  0.00    +0.038 C 
ENDBRANCH  25  27
ENDBRANCH  24  25
ENDBRANCH  18  24
ENDBRANCH  17  23
ENDBRANCH  16  17
ENDBRANCH   1  16
TORSDOF 8
ENDMDL
MODEL 6
REMARK VINA RESULT:    -3.793      1.715      2.094
REMARK INTER + INTRA:          -7.330
REMARK INTER:                  -6.452
REMARK INTRA:                  -0.878
REMARK UNBOUND:                -1.762
REMARK  Name = 
REMARK  9 active torsions:
REMARK  status: ('A' for Active; 'I' for Inactive)
REMARK    1  A    between atoms: C_1  and  C_2
REMARK    2  A    between atoms: C_2  and  C_3
REMARK    3  A    between atoms: C_3  and  O_4
REMARK    4  A    between atoms: O_4  and  C_5
REMARK    5  A    between atoms: C_10  and  O_11
REMARK    6  A    between atoms: O_11  and  C_12
REMARK    7  A    between atoms: C_12  and  C_13
REMARK    8  A    between atoms: N_15  and  C_16
REMARK    9  A    between atoms: C_19  and  C_22
REMARK                            x       y       z     vdW  Elec       q    Type
REMARK                         _______ _______ _______ _____ _____    ______ ____
ROOT
ATOM      1  C   UNL     1     -32.087 -11.563  19.304  0.00  0.00    +0.255 C 
ATOM      2  O   UNL     1     -32.331 -12.458  20.158  0.00  0.00    -0.272 OA
ATOM      3  N   UNL     1     -30.736 -11.152  19.042  0.00  0.00    -0.283 N 
ATOM      4  H   UNL     1     -30.586 -10.222  18.589  0.00  0.00    +0.155 HD
ENDROOT
BRANCH   3   5
ATOM      5  C   UNL     1     -29.575 -11.892  19.459  0.00  0.00    +0.034 A 
ATOM      6  C   UNL     1     -28.341 -11.640  18.844  0.00  0.00    +0.024 A 
ATOM      7  C   UNL     1     -27.202 -12.360  19.215  0.00  0.00    +0.015 A 
ATOM      8  C   UNL     1     -27.279 -13.362  20.199  0.00  0.00    +0.037 A 
ATOM      9  C   UNL     1     -28.521 -13.620  20.807  0.00  0.00    +0.015 A 
ATOM     10  C   UNL     1     -29.659 -12.900  20.434  0.00  0.00    +0.024 A 
BRANCH   8  11
ATOM     11  C   UNL     1     -26.079 -14.132  20.611  0.00  0.00    +0.242 C 
ATOM     12  N   UNL     1     -26.124 -15.061  21.697  0.00  0.00    -0.325 N 
ATOM     13  O   UNL     1     -24.988 -13.960  20.003  0.00  0.00    -0.270 OA
ATOM     14  H   UNL     1     -26.950 -15.126  22.332  0.00  0.00    +0.145 HD
ATOM     15  H   UNL     1     -25.281 -15.632  21.928  0.00  0.00    +0.145 HD
ENDBRANCH   8  11
ENDBRANCH   3   5
BRANCH   1  16
ATOM     16  C   UNL     1     -33.229 -10.885  18.614  0.00  0.00    +0.325 C 
BRANCH  16  17
ATOM     17  O   UNL     1     -33.806 -11.781  17.670  0.00  0.00    -0.479 OA
BRANCH  17  23
ATOM     18  C   UNL     1     -32.499 -12.210  15.690  0.00  0.00    +0.162 A 
ATOM     19  C   UNL     1     -32.324 -12.121  14.293  0.00  0.00    +0.049 A 
ATOM     20  C   UNL     1     -33.294 -11.504  13.500  0.00  0.00    +0.004 A 
ATOM     21  C   UNL     1     -34.444 -10.973  14.086  0.00  0.00    +0.004 A 
ATOM     22  C   UNL     1     -34.630 -11.058  15.466  0.00  0.00    +0.049 A 
ATOM     23  C   UNL     1     -33.657 -11.679  16.277  0.00  0.00    +0.163 A 
BRANCH  18  24
ATOM     24  O   UNL     1     -31.553 -12.824  16.530  0.00  0.00    -0.488 OA
BRANCH  24  25
ATOM     25  C   UNL     1     -31.346 -14.232  16.665  0.00  0.00    +0.229 C 
BRANCH  25  27
ATOM     26  C   UNL     1     -28.929 -14.177  15.906  0.00  0.00    +0.007 C 
ATOM     27  C   UNL     1     -30.323 -14.744  15.645  0.00  0.00    +0.038 C 
ENDBRANCH  25  27
ENDBRANCH  24  25
ENDBRANCH  18  24
ENDBRANCH  17  23
ENDBRANCH  16  17
ENDBRANCH   1  16
TORSDOF 8
ENDMDL
MODEL 7
REMARK VINA RESULT:    -3.667      2.776      7.643
REMARK INTER + INTRA:          -7.144
REMARK INTER:                  -5.560
REMARK INTRA:                  -1.583
REMARK UNBOUND:                -1.762
REMARK  Name = 
REMARK  9 active torsions:
REMARK  status: ('A' for Active; 'I' for Inactive)
REMARK    1  A    between atoms: C_1  and  C_2
REMARK    2  A    between atoms: C_2  and  C_3
REMARK    3  A    between atoms: C_3  and  O_4
REMARK    4  A    between atoms: O_4  and  C_5
REMARK    5  A    between atoms: C_10  and  O_11
REMARK    6  A    between atoms: O_11  and  C_12
REMARK    7  A    between atoms: C_12  and  C_13
REMARK    8  A    between atoms: N_15  and  C_16
REMARK    9  A    between atoms: C_19  and  C_22
REMARK                            x       y       z     vdW  Elec       q    Type
REMARK                         _______ _______ _______ _____ _____    ______ ____
ROOT
ATOM      1  C   UNL     1     -31.528 -11.740  19.955  0.00  0.00    +0.255 C 
ATOM      2  O   UNL     1     -32.604 -12.381  19.819  0.00  0.00    -0.272 OA
ATOM      3  N   UNL     1     -31.111 -10.792  18.959  0.00  0.00    -0.283 N 
ATOM      4  H   UNL     1     -30.101 -10.525  18.930  0.00  0.00    +0.155 HD
ENDROOT
BRANCH   3   5
ATOM      5  C   UNL     1     -31.974 -10.273  17.932  0.00  0.00    +0.034 A 
ATOM      6  C   UNL     1     -31.792 -10.688  16.606  0.00  0.00    +0.024 A 
ATOM      7  C   UNL     1     -32.603 -10.182  15.586  0.00  0.00    +0.015 A 
ATOM      8  C   UNL     1     -33.601  -9.234  15.870  0.00  0.00    +0.037 A 
ATOM      9  C   UNL     1     -33.774  -8.810  17.201  0.00  0.00    +0.015 A 
ATOM     10  C   UNL     1     -32.963  -9.316  18.220  0.00  0.00    +0.024 A 
BRANCH   8  11
ATOM     11  C   UNL     1     -34.476  -8.691  14.802  0.00  0.00    +0.242 C 
ATOM     12  N   UNL     1     -35.062  -9.540  13.812  0.00  0.00    -0.325 N 
ATOM     13  O   UNL     1     -34.701  -7.451  14.750  0.00  0.00    -0.270 OA
ATOM     14  H   UNL     1     -34.786 -10.541  13.711  0.00  0.00    +0.145 HD
ATOM     15  H   UNL     1     -35.720  -9.139  13.107  0.00  0.00    +0.145 HD
ENDBRANCH   8  11
ENDBRANCH   3   5
BRANCH   1  16
ATOM     16  C   UNL     1     -30.654 -12.026  21.136  0.00  0.00    +0.325 C 
BRANCH  16  17
ATOM     17  O   UNL     1     -30.023 -13.290  20.959  0.00  0.00    -0.479 OA
BRANCH  17  23
ATOM     18  C   UNL     1     -27.914 -13.126  19.802  0.00  0.00    +0.162 A 
ATOM     19  C   UNL     1     -26.518 -13.320  19.765  0.00  0.00    +0.049 A 
ATOM     20  C   UNL     1     -25.855 -13.881  20.860  0.00  0.00    +0.004 A 
ATOM     21  C   UNL     1     -26.573 -14.250  21.998  0.00  0.00    +0.004 A 
ATOM     22  C   UNL     1     -27.954 -14.059  22.048  0.00  0.00    +0.049 A 
ATOM     23  C   UNL     1     -28.634 -13.495  20.949  0.00  0.00    +0.163 A 
BRANCH  18  24
ATOM     24  O   UNL     1     -28.625 -12.563  18.727  0.00  0.00    -0.488 OA
BRANCH  24  25
ATOM     25  C   UNL     1     -28.794 -13.154  17.437  0.00  0.00    +0.229 C 
BRANCH  25  27
ATOM     26  C   UNL     1     -30.430 -14.392  15.950  0.00  0.00    +0.007 C 
ATOM     27  C   UNL     1     -30.058 -14.021  17.383  0.00  0.00    +0.038 C 
ENDBRANCH  25  27
ENDBRANCH  24  25
ENDBRANCH  18  24
ENDBRANCH  17  23
ENDBRANCH  16  17
ENDBRANCH   1  16
TORSDOF 8
ENDMDL
MODEL 8
REMARK VINA RESULT:    -3.640      2.752      4.966
REMARK INTER + INTRA:          -7.105
REMARK INTER:                  -5.728
REMARK INTRA:                  -1.377
REMARK UNBOUND:                -1.762
REMARK  Name = 
REMARK  9 active torsions:
REMARK  status: ('A' for Active; 'I' for Inactive)
REMARK    1  A    between atoms: C_1  and  C_2
REMARK    2  A    between atoms: C_2  and  C_3
REMARK    3  A    between atoms: C_3  and  O_4
REMARK    4  A    between atoms: O_4  and  C_5
REMARK    5  A    between atoms: C_10  and  O_11
REMARK    6  A    between atoms: O_11  and  C_12
REMARK    7  A    between atoms: C_12  and  C_13
REMARK    8  A    between atoms: N_15  and  C_16
REMARK    9  A    between atoms: C_19  and  C_22
REMARK                            x       y       z     vdW  Elec       q    Type
REMARK                         _______ _______ _______ _____ _____    ______ ____
ROOT
ATOM      1  C   UNL     1     -31.817 -10.455  15.902  0.00  0.00    +0.255 C 
ATOM      2  O   UNL     1     -30.755  -9.821  15.654  0.00  0.00    -0.272 OA
ATOM      3  N   UNL     1     -32.372 -10.458  17.227  0.00  0.00    -0.283 N 
ATOM      4  H   UNL     1     -33.040 -11.223  17.475  0.00  0.00    +0.155 HD
ENDROOT
BRANCH   3   5
ATOM      5  C   UNL     1     -31.984  -9.541  18.265  0.00  0.00    +0.034 A 
ATOM      6  C   UNL     1     -32.772  -8.409  18.512  0.00  0.00    +0.024 A 
ATOM      7  C   UNL     1     -32.406  -7.490  19.499  0.00  0.00    +0.015 A 
ATOM      8  C   UNL     1     -31.230  -7.676  20.248  0.00  0.00    +0.037 A 
ATOM      9  C   UNL     1     -30.434  -8.807  19.989  0.00  0.00    +0.015 A 
ATOM     10  C   UNL     1     -30.801  -9.725  19.001  0.00  0.00    +0.024 A 
BRANCH   8  11
ATOM     11  C   UNL     1     -30.828  -6.714  21.304  0.00  0.00    +0.242 C 
ATOM     12  N   UNL     1     -29.452  -6.424  21.566  0.00  0.00    -0.325 N 
ATOM     13  O   UNL     1     -31.712  -6.146  22.000  0.00  0.00    -0.270 OA
ATOM     14  H   UNL     1     -28.680  -6.978  21.134  0.00  0.00    +0.145 HD
ATOM     15  H   UNL     1     -29.199  -5.700  22.275  0.00  0.00    +0.145 HD
ENDBRANCH   8  11
ENDBRANCH   3   5
BRANCH   1  16
ATOM     16  C   UNL     1     -32.456 -11.259  14.814  0.00  0.00    +0.325 C 
BRANCH  16  17
ATOM     17  O   UNL     1     -32.321 -12.645  15.112  0.00  0.00    -0.479 OA
BRANCH  17  23
ATOM     18  C   UNL     1     -30.484 -14.094  15.695  0.00  0.00    +0.162 A 
ATOM     19  C   UNL     1     -29.395 -14.906  15.315  0.00  0.00    +0.049 A 
ATOM     20  C   UNL     1     -29.070 -15.062  13.965  0.00  0.00    +0.004 A 
ATOM     21  C   UNL     1     -29.823 -14.417  12.984  0.00  0.00    +0.004 A 
ATOM     22  C   UNL     1     -30.905 -13.613  13.347  0.00  0.00    +0.049 A 
ATOM     23  C   UNL     1     -31.242 -13.447  14.706  0.00  0.00    +0.163 A 
BRANCH  18  24
ATOM     24  O   UNL     1     -30.852 -13.907  17.039  0.00  0.00    -0.488 OA
BRANCH  24  25
ATOM     25  C   UNL     1     -29.980 -13.499  18.094  0.00  0.00    +0.229 C 
BRANCH  25  27
ATOM     26  C   UNL     1     -29.802 -13.130  20.595  0.00  0.00    +0.007 C 
ATOM     27  C   UNL     1     -30.746 -13.311  19.409  0.00  0.00    +0.038 C 
ENDBRANCH  25  27
ENDBRANCH  24  25
ENDBRANCH  18  24
ENDBRANCH  17  23
ENDBRANCH  16  17
ENDBRANCH   1  16
TORSDOF 8
ENDMDL
MODEL 9
REMARK VINA RESULT:    -3.516      2.709      5.590
REMARK INTER + INTRA:          -6.923
REMARK INTER:                  -4.868
REMARK INTRA:                  -2.055
REMARK UNBOUND:                -1.762
REMARK  Name = 
REMARK  9 active torsions:
REMARK  status: ('A' for Active; 'I' for Inactive)
REMARK    1  A    between atoms: C_1  and  C_2
REMARK    2  A    between atoms: C_2  and  C_3
REMARK    3  A    between atoms: C_3  and  O_4
REMARK    4  A    between atoms: O_4  and  C_5
REMARK    5  A    between atoms: C_10  and  O_11
REMARK    6  A    between atoms: O_11  and  C_12
REMARK    7  A    between atoms: C_12  and  C_13
REMARK    8  A    between atoms: N_15  and  C_16
REMARK    9  A    between atoms: C_19  and  C_22
REMARK                            x       y       z     vdW  Elec       q    Type
REMARK                         _______ _______ _______ _____ _____    ______ ____
ROOT
ATOM      1  C   UNL     1     -29.462 -12.044  18.316  0.00  0.00    +0.255 C 
ATOM      2  O   UNL     1     -28.828 -11.127  18.904  0.00  0.00    -0.272 OA
ATOM      3  N   UNL     1     -30.898 -12.078  18.352  0.00  0.00    -0.283 N 
ATOM      4  H   UNL     1     -31.372 -12.986  18.145  0.00  0.00    +0.155 HD
ENDROOT
BRANCH   3   5
ATOM      5  C   UNL     1     -31.719 -10.969  18.759  0.00  0.00    +0.034 A 
ATOM      6  C   UNL     1     -32.739 -11.176  19.697  0.00  0.00    +0.024 A 
ATOM      7  C   UNL     1     -33.565 -10.121  20.094  0.00  0.00    +0.015 A 
ATOM      8  C   UNL     1     -33.399  -8.837  19.543  0.00  0.00    +0.037 A 
ATOM      9  C   UNL     1     -32.382  -8.635  18.592  0.00  0.00    +0.015 A 
ATOM     10  C   UNL     1     -31.556  -9.691  18.196  0.00  0.00    +0.024 A 
BRANCH   8  11
ATOM     11  C   UNL     1     -34.261  -7.703  19.956  0.00  0.00    +0.242 C 
ATOM     12  N   UNL     1     -35.062  -7.765  21.139  0.00  0.00    -0.325 N 
ATOM     13  O   UNL     1     -34.306  -6.662  19.246  0.00  0.00    -0.270 OA
ATOM     14  H   UNL     1     -35.186  -8.653  21.675  0.00  0.00    +0.145 HD
ATOM     15  H   UNL     1     -35.615  -6.931  21.437  0.00  0.00    +0.145 HD
ENDBRANCH   8  11
ENDBRANCH   3   5
BRANCH   1  16
ATOM     16  C   UNL     1     -28.699 -13.137  17.636  0.00  0.00    +0.325 C 
BRANCH  16  17
ATOM     17  O   UNL     1     -29.611 -13.998  16.962  0.00  0.00    -0.479 OA
BRANCH  17  23
ATOM     18  C   UNL     1     -30.816 -13.644  14.903  0.00  0.00    +0.162 A 
ATOM     19  C   UNL     1     -30.917 -13.780  13.504  0.00  0.00    +0.049 A 
ATOM     20  C   UNL     1     -29.904 -14.418  12.783  0.00  0.00    +0.004 A 
ATOM     21  C   UNL     1     -28.784 -14.921  13.445  0.00  0.00    +0.004 A 
ATOM     22  C   UNL     1     -28.671 -14.789  14.829  0.00  0.00    +0.049 A 
ATOM     23  C   UNL     1     -29.687 -14.148  15.568  0.00  0.00    +0.163 A 
BRANCH  18  24
ATOM     24  O   UNL     1     -31.807 -13.008  15.673  0.00  0.00    -0.488 OA
BRANCH  24  25
ATOM     25  C   UNL     1     -32.716 -12.011  15.202  0.00  0.00    +0.229 C 
BRANCH  25  27
ATOM     26  C   UNL     1     -34.666 -10.649  16.077  0.00  0.00    +0.007 C 
ATOM     27  C   UNL     1     -34.027 -12.033  15.997  0.00  0.00    +0.038 C 
ENDBRANCH  25  27
ENDBRANCH  24  25
ENDBRANCH  18  24
ENDBRANCH  17  23
ENDBRANCH  16  17
ENDBRANCH   1  16
TORSDOF 8
ENDMDL
