MODEL 1
REMARK VINA RESULT:    -3.536      0.000      0.000
REMARK INTER + INTRA:          -5.196
REMARK INTER:                  -4.673
REMARK INTRA:                  -0.523
REMARK UNBOUND:                -0.523
REMARK  Name = 
REMARK  6 active torsions:
REMARK  status: ('A' for Active; 'I' for Inactive)
REMARK    1  A    between atoms: N_1  and  S_2
REMARK    2  A    between atoms: S_2  and  C_5
REMARK    3  A    between atoms: C_8  and  C_11
REMARK    4  A    between atoms: C_11  and  N_12
REMARK    5  A    between atoms: C_13  and  C_15
REMARK    6  A    between atoms: C_18  and  C_21
REMARK                            x       y       z     vdW  Elec       q    Type
REMARK                         _______ _______ _______ _____ _____    ______ ____
ROOT
ATOM      1  N   UNL     1     -31.535 -12.207  17.781  0.00  0.00    -0.307 N 
ATOM      2  C   UNL     1     -31.216 -12.671  19.104  0.00  0.00    +0.246 C 
ATOM      3  O   UNL     1     -32.142 -12.832  19.947  0.00  0.00    -0.270 OA
ATOM      4  H   UNL     1     -30.801 -12.200  17.038  0.00  0.00    +0.149 HD
ENDROOT
BRANCH   2   5
ATOM      5  C   UNL     1     -29.821 -12.984  19.493  0.00  0.00    +0.055 A 
ATOM      6  C   UNL     1     -29.482 -13.134  20.847  0.00  0.00    +0.016 A 
ATOM      7  C   UNL     1     -28.168 -13.426  21.217  0.00  0.00    +0.033 A 
ATOM      8  C   UNL     1     -27.186 -13.561  20.227  0.00  0.00    +0.144 A 
ATOM      9  N   UNL     1     -27.527 -13.394  18.920  0.00  0.00    -0.250 NA
ATOM     10  C   UNL     1     -28.801 -13.114  18.534  0.00  0.00    +0.124 A 
BRANCH   8  11
ATOM     11  C   UNL     1     -25.767 -13.867  20.602  0.00  0.00    +0.434 C 
ATOM     12  F   UNL     1     -25.361 -15.062  20.033  0.00  0.00    -0.164 F 
ATOM     13  F   UNL     1     -24.939 -12.855  20.154  0.00  0.00    -0.164 F 
ATOM     14  F   UNL     1     -25.659 -13.969  21.978  0.00  0.00    -0.164 F 
ENDBRANCH   8  11
ENDBRANCH   2   5
BRANCH   1  15
ATOM     15  C   UNL     1     -32.891 -11.822  17.395  0.00  0.00    +0.139 C 
BRANCH  15  19
ATOM     16  C   UNL     1     -33.702  -7.765  18.627  0.00  0.00    +0.105 A 
ATOM     17  C   UNL     1     -34.754  -8.669  18.431  0.00  0.00    +0.029 A 
ATOM     18  C   UNL     1     -34.490  -9.980  18.025  0.00  0.00    +0.007 A 
ATOM     19  C   UNL     1     -33.169 -10.403  17.811  0.00  0.00    -0.030 A 
ATOM     20  C   UNL     1     -32.115  -9.498  18.018  0.00  0.00    +0.007 A 
ATOM     21  C   UNL     1     -32.381  -8.187  18.425  0.00  0.00    +0.029 A 
BRANCH  16  22
ATOM     22  S   UNL     1     -34.037  -6.121  19.157  0.00  0.00    +0.056 S 
ATOM     23  O   UNL     1     -32.749  -5.425  19.498  0.00  0.00    -0.153 OA
ATOM     24  O   UNL     1     -34.909  -6.148  20.381  0.00  0.00    -0.153 OA
BRANCH  22  25
ATOM     25  N   UNL     1     -34.845  -5.263  17.893  0.00  0.00    -0.204 NA
ATOM     26  H   UNL     1     -34.301  -5.425  17.016  0.00  0.00    +0.144 HD
ATOM     27  H   UNL     1     -35.775  -5.721  17.760  0.00  0.00    +0.144 HD
ENDBRANCH  22  25
ENDBRANCH  16  22
ENDBRANCH  15  19
ENDBRANCH   1  15
TORSDOF 6
ENDMDL
MODEL 2
REMARK VINA RESULT:    -3.393      4.480      5.470
REMARK INTER + INTRA:          -5.007
REMARK INTER:                  -4.324
REMARK INTRA:                  -0.683
REMARK UNBOUND:                -0.523
REMARK  Name = 
REMARK  6 active torsions:
REMARK  status: ('A' for Active; 'I' for Inactive)
REMARK    1  A    between atoms: N_1  and  S_2
REMARK    2  A    between atoms: S_2  and  C_5
REMARK    3  A    between atoms: C_8  and  C_11
REMARK    4  A    between atoms: C_11  and  N_12
REMARK    5  A    between atoms: C_13  and  C_15
REMARK    6  A    between atoms: C_18  and  C_21
REMARK                            x       y       z     vdW  Elec       q    Type
REMARK                         _______ _______ _______ _____ _____    ______ ____
ROOT
ATOM      1  N   UNL     1     -32.233 -12.435  18.671  0.00  0.00    -0.307 N 
ATOM      2  C   UNL     1     -31.092 -13.193  18.234  0.00  0.00    +0.246 C 
ATOM      3  O   UNL     1     -30.269 -13.625  19.088  0.00  0.00    -0.270 OA
ATOM      4  H   UNL     1     -32.988 -12.191  17.992  0.00  0.00    +0.149 HD
ENDROOT
BRANCH   2   5
ATOM      5  C   UNL     1     -30.871 -13.493  16.800  0.00  0.00    +0.055 A 
ATOM      6  C   UNL     1     -29.888 -14.419  16.415  0.00  0.00    +0.016 A 
ATOM      7  C   UNL     1     -29.676 -14.702  15.065  0.00  0.00    +0.033 A 
ATOM      8  C   UNL     1     -30.448 -14.050  14.094  0.00  0.00    +0.144 A 
ATOM      9  N   UNL     1     -31.384 -13.142  14.483  0.00  0.00    -0.250 NA
ATOM     10  C   UNL     1     -31.612 -12.852  15.792  0.00  0.00    +0.124 A 
BRANCH   8  11
ATOM     11  C   UNL     1     -30.233 -14.334  12.637  0.00  0.00    +0.434 C 
ATOM     12  F   UNL     1     -29.069 -15.059  12.449  0.00  0.00    -0.164 F 
ATOM     13  F   UNL     1     -31.299 -15.062  12.143  0.00  0.00    -0.164 F 
ATOM     14  F   UNL     1     -30.133 -13.143  11.939  0.00  0.00    -0.164 F 
ENDBRANCH   8  11
ENDBRANCH   2   5
BRANCH   1  15
ATOM     15  C   UNL     1     -32.434 -12.062  20.069  0.00  0.00    +0.139 C 
BRANCH  15  19
ATOM     16  C   UNL     1     -31.342  -7.930  20.672  0.00  0.00    +0.105 A 
ATOM     17  C   UNL     1     -30.900  -8.916  21.564  0.00  0.00    +0.029 A 
ATOM     18  C   UNL     1     -31.262 -10.252  21.371  0.00  0.00    +0.007 A 
ATOM     19  C   UNL     1     -32.068 -10.619  20.283  0.00  0.00    -0.030 A 
ATOM     20  C   UNL     1     -32.500  -9.630  19.383  0.00  0.00    +0.007 A 
ATOM     21  C   UNL     1     -32.137  -8.294  19.577  0.00  0.00    +0.029 A 
BRANCH  16  22
ATOM     22  S   UNL     1     -30.869  -6.251  20.906  0.00  0.00    +0.056 S 
ATOM     23  O   UNL     1     -31.648  -5.658  22.045  0.00  0.00    -0.153 OA
ATOM     24  O   UNL     1     -31.160  -5.462  19.660  0.00  0.00    -0.153 OA
BRANCH  22  25
ATOM     25  N   UNL     1     -29.178  -6.174  21.255  0.00  0.00    -0.204 NA
ATOM     26  H   UNL     1     -28.885  -5.179  21.131  0.00  0.00    +0.144 HD
ATOM     27  H   UNL     1     -29.066  -6.398  22.269  0.00  0.00    +0.144 HD
ENDBRANCH  22  25
ENDBRANCH  16  22
ENDBRANCH  15  19
ENDBRANCH   1  15
TORSDOF 6
ENDMDL
MODEL 3
REMARK VINA RESULT:    -3.008      5.631      8.573
REMARK INTER + INTRA:          -4.498
REMARK INTER:                  -3.826
REMARK INTRA:                  -0.671
REMARK UNBOUND:                -0.523
REMARK  Name = 
REMARK  6 active torsions:
REMARK  status: ('A' for Active; 'I' for Inactive)
REMARK    1  A    between atoms: N_1  and  S_2
REMARK    2  A    between atoms: S_2  and  C_5
REMARK    3  A    between atoms: C_8  and  C_11
REMARK    4  A    between atoms: C_11  and  N_12
REMARK    5  A    between atoms: C_13  and  C_15
REMARK    6  A    between atoms: C_18  and  C_21
REMARK                            x       y       z     vdW  Elec       q    Type
REMARK                         _______ _______ _______ _____ _____    ______ ____
ROOT
ATOM      1  N   UNL     1     -31.207  -9.550  18.769  0.00  0.00    -0.307 N 
ATOM      2  C   UNL     1     -32.311 -10.411  18.441  0.00  0.00    +0.246 C 
ATOM      3  O   UNL     1     -32.875 -11.075  19.355  0.00  0.00    -0.270 OA
ATOM      4  H   UNL     1     -30.824  -8.896  18.051  0.00  0.00    +0.149 HD
ENDROOT
BRANCH   2   5
ATOM      5  C   UNL     1     -32.814 -10.521  17.052  0.00  0.00    +0.055 A 
ATOM      6  C   UNL     1     -33.784 -11.482  16.725  0.00  0.00    +0.016 A 
ATOM      7  C   UNL     1     -34.258 -11.590  15.417  0.00  0.00    +0.033 A 
ATOM      8  C   UNL     1     -33.754 -10.735  14.428  0.00  0.00    +0.144 A 
ATOM      9  N   UNL     1     -32.802  -9.819  14.757  0.00  0.00    -0.250 NA
ATOM     10  C   UNL     1     -32.327  -9.692  16.026  0.00  0.00    +0.124 A 
BRANCH   8  11
ATOM     11  C   UNL     1     -34.244 -10.837  13.014  0.00  0.00    +0.434 C 
ATOM     12  F   UNL     1     -35.057 -11.946  12.860  0.00  0.00    -0.164 F 
ATOM     13  F   UNL     1     -34.966  -9.703  12.690  0.00  0.00    -0.164 F 
ATOM     14  F   UNL     1     -33.165 -10.951  12.154  0.00  0.00    -0.164 F 
ENDBRANCH   8  11
ENDBRANCH   2   5
BRANCH   1  15
ATOM     15  C   UNL     1     -30.646  -9.480  20.117  0.00  0.00    +0.139 C 
BRANCH  15  19
ATOM     16  C   UNL     1     -27.923 -12.760  20.796  0.00  0.00    +0.105 A 
ATOM     17  C   UNL     1     -27.817 -11.981  19.637  0.00  0.00    +0.029 A 
ATOM     18  C   UNL     1     -28.704 -10.924  19.415  0.00  0.00    +0.007 A 
ATOM     19  C   UNL     1     -29.708 -10.633  20.352  0.00  0.00    -0.030 A 
ATOM     20  C   UNL     1     -29.806 -11.409  21.519  0.00  0.00    +0.007 A 
ATOM     21  C   UNL     1     -28.917 -12.465  21.739  0.00  0.00    +0.029 A 
BRANCH  16  22
ATOM     22  S   UNL     1     -26.791 -14.077  21.082  0.00  0.00    +0.056 S 
ATOM     23  O   UNL     1     -27.382 -15.051  22.062  0.00  0.00    -0.153 OA
ATOM     24  O   UNL     1     -25.511 -13.534  21.654  0.00  0.00    -0.153 OA
BRANCH  22  25
ATOM     25  N   UNL     1     -26.459 -14.883  19.590  0.00  0.00    -0.204 NA
ATOM     26  H   UNL     1     -26.023 -14.180  18.953  0.00  0.00    +0.144 HD
ATOM     27  H   UNL     1     -25.730 -15.604  19.789  0.00  0.00    +0.144 HD
ENDBRANCH  22  25
ENDBRANCH  16  22
ENDBRANCH  15  19
ENDBRANCH   1  15
TORSDOF 6
ENDMDL
MODEL 4
REMARK VINA RESULT:    -2.888      4.237      5.174
REMARK INTER + INTRA:          -4.340
REMARK INTER:                  -3.644
REMARK INTRA:                  -0.696
REMARK UNBOUND:                -0.523
REMARK  Name = 
REMARK  6 active torsions:
REMARK  status: ('A' for Active; 'I' for Inactive)
REMARK    1  A    between atoms: N_1  and  S_2
REMARK    2  A    between atoms: S_2  and  C_5
REMARK    3  A    between atoms: C_8  and  C_11
REMARK    4  A    between atoms: C_11  and  N_12
REMARK    5  A    between atoms: C_13  and  C_15
REMARK    6  A    between atoms: C_18  and  C_21
REMARK                            x       y       z     vdW  Elec       q    Type
REMARK                         _______ _______ _______ _____ _____    ______ ____
ROOT
ATOM      1  N   UNL     1     -31.976 -12.813  18.841  0.00  0.00    -0.307 N 
ATOM      2  C   UNL     1     -30.665 -12.946  18.266  0.00  0.00    +0.246 C 
ATOM      3  O   UNL     1     -29.647 -12.768  18.991  0.00  0.00    -0.270 OA
ATOM      4  H   UNL     1     -32.819 -13.090  18.289  0.00  0.00    +0.149 HD
ENDROOT
BRANCH   2   5
ATOM      5  C   UNL     1     -30.483 -13.306  16.840  0.00  0.00    +0.055 A 
ATOM      6  C   UNL     1     -29.823 -14.495  16.490  0.00  0.00    +0.016 A 
ATOM      7  C   UNL     1     -29.649 -14.836  15.148  0.00  0.00    +0.033 A 
ATOM      8  C   UNL     1     -30.131 -13.978  14.150  0.00  0.00    +0.144 A 
ATOM      9  N   UNL     1     -30.753 -12.821  14.506  0.00  0.00    -0.250 NA
ATOM     10  C   UNL     1     -30.939 -12.469  15.806  0.00  0.00    +0.124 A 
BRANCH   8  11
ATOM     11  C   UNL     1     -29.949 -14.321  12.701  0.00  0.00    +0.434 C 
ATOM     12  F   UNL     1     -29.854 -13.171  11.938  0.00  0.00    -0.164 F 
ATOM     13  F   UNL     1     -28.793 -15.062  12.541  0.00  0.00    -0.164 F 
ATOM     14  F   UNL     1     -31.030 -15.062  12.258  0.00  0.00    -0.164 F 
ENDBRANCH   8  11
ENDBRANCH   2   5
BRANCH   1  15
ATOM     15  C   UNL     1     -32.182 -12.387  20.223  0.00  0.00    +0.139 C 
BRANCH  15  19
ATOM     16  C   UNL     1     -31.879  -8.091  20.501  0.00  0.00    +0.105 A 
ATOM     17  C   UNL     1     -31.037  -8.910  21.264  0.00  0.00    +0.029 A 
ATOM     18  C   UNL     1     -31.142 -10.301  21.178  0.00  0.00    +0.007 A 
ATOM     19  C   UNL     1     -32.091 -10.889  20.327  0.00  0.00    -0.030 A 
ATOM     20  C   UNL     1     -32.926 -10.066  19.555  0.00  0.00    +0.007 A 
ATOM     21  C   UNL     1     -32.819  -8.674  19.641  0.00  0.00    +0.029 A 
BRANCH  16  22
ATOM     22  S   UNL     1     -31.731  -6.339  20.596  0.00  0.00    +0.056 S 
ATOM     23  O   UNL     1     -30.279  -5.953  20.619  0.00  0.00    -0.153 OA
ATOM     24  O   UNL     1     -32.383  -5.841  21.856  0.00  0.00    -0.153 OA
BRANCH  22  25
ATOM     25  N   UNL     1     -32.503  -5.622  19.226  0.00  0.00    -0.204 NA
ATOM     26  H   UNL     1     -31.971  -4.753  18.996  0.00  0.00    +0.144 HD
ATOM     27  H   UNL     1     -32.370  -6.278  18.424  0.00  0.00    +0.144 HD
ENDBRANCH  22  25
ENDBRANCH  16  22
ENDBRANCH  15  19
ENDBRANCH   1  15
TORSDOF 6
ENDMDL
MODEL 5
REMARK VINA RESULT:    -2.487      4.141      5.093
REMARK INTER + INTRA:          -3.810
REMARK INTER:                  -3.272
REMARK INTRA:                  -0.538
REMARK UNBOUND:                -0.523
REMARK  Name = 
REMARK  6 active torsions:
REMARK  status: ('A' for Active; 'I' for Inactive)
REMARK    1  A    between atoms: N_1  and  S_2
REMARK    2  A    between atoms: S_2  and  C_5
REMARK    3  A    between atoms: C_8  and  C_11
REMARK    4  A    between atoms: C_11  and  N_12
REMARK    5  A    between atoms: C_13  and  C_15
REMARK    6  A    between atoms: C_18  and  C_21
REMARK                            x       y       z     vdW  Elec       q    Type
REMARK                         _______ _______ _______ _____ _____    ______ ____
ROOT
ATOM      1  N   UNL     1     -30.057 -11.837  18.869  0.00  0.00    -0.307 N 
ATOM      2  C   UNL     1     -30.917 -12.733  18.145  0.00  0.00    +0.246 C 
ATOM      3  O   UNL     1     -31.967 -13.167  18.695  0.00  0.00    -0.270 OA
ATOM      4  H   UNL     1     -29.263 -11.366  18.380  0.00  0.00    +0.149 HD
ENDROOT
BRANCH   2   5
ATOM      5  C   UNL     1     -30.605 -13.145  16.757  0.00  0.00    +0.055 A 
ATOM      6  C   UNL     1     -29.534 -14.017  16.502  0.00  0.00    +0.016 A 
ATOM      7  C   UNL     1     -29.236 -14.405  15.195  0.00  0.00    +0.033 A 
ATOM      8  C   UNL     1     -30.010 -13.912  14.136  0.00  0.00    +0.144 A 
ATOM      9  N   UNL     1     -31.033 -13.053  14.398  0.00  0.00    -0.250 NA
ATOM     10  C   UNL     1     -31.346 -12.664  15.663  0.00  0.00    +0.124 A 
BRANCH   8  11
ATOM     11  C   UNL     1     -29.703 -14.310  12.722  0.00  0.00    +0.434 C 
ATOM     12  F   UNL     1     -30.737 -15.062  12.194  0.00  0.00    -0.164 F 
ATOM     13  F   UNL     1     -29.532 -13.178  11.947  0.00  0.00    -0.164 F 
ATOM     14  F   UNL     1     -28.542 -15.062  12.691  0.00  0.00    -0.164 F 
ENDBRANCH   8  11
ENDBRANCH   2   5
BRANCH   1  15
ATOM     15  C   UNL     1     -30.303 -11.474  20.263  0.00  0.00    +0.139 C 
BRANCH  15  19
ATOM     16  C   UNL     1     -31.808  -7.436  20.499  0.00  0.00    +0.105 A 
ATOM     17  C   UNL     1     -31.484  -7.999  19.258  0.00  0.00    +0.029 A 
ATOM     18  C   UNL     1     -30.990  -9.304  19.184  0.00  0.00    +0.007 A 
ATOM     19  C   UNL     1     -30.814 -10.062  20.352  0.00  0.00    -0.030 A 
ATOM     20  C   UNL     1     -31.150  -9.499  21.594  0.00  0.00    +0.007 A 
ATOM     21  C   UNL     1     -31.645  -8.194  21.666  0.00  0.00    +0.029 A 
BRANCH  16  22
ATOM     22  S   UNL     1     -32.449  -5.799  20.586  0.00  0.00    +0.056 S 
ATOM     23  O   UNL     1     -31.688  -5.009  21.613  0.00  0.00    -0.153 OA
ATOM     24  O   UNL     1     -33.898  -5.840  20.986  0.00  0.00    -0.153 OA
BRANCH  22  25
ATOM     25  N   UNL     1     -32.300  -5.040  19.040  0.00  0.00    -0.204 NA
ATOM     26  H   UNL     1     -33.215  -5.158  18.552  0.00  0.00    +0.144 HD
ATOM     27  H   UNL     1     -32.179  -4.017  19.214  0.00  0.00    +0.144 HD
ENDBRANCH  22  25
ENDBRANCH  16  22
ENDBRANCH  15  19
ENDBRANCH   1  15
TORSDOF 6
ENDMDL
MODEL 6
REMARK VINA RESULT:    -2.092      4.667      5.677
REMARK INTER + INTRA:          -3.288
REMARK INTER:                  -3.208
REMARK INTRA:                  -0.080
REMARK UNBOUND:                -0.523
REMARK  Name = 
REMARK  6 active torsions:
REMARK  status: ('A' for Active; 'I' for Inactive)
REMARK    1  A    between atoms: N_1  and  S_2
REMARK    2  A    between atoms: S_2  and  C_5
REMARK    3  A    between atoms: C_8  and  C_11
REMARK    4  A    between atoms: C_11  and  N_12
REMARK    5  A    between atoms: C_13  and  C_15
REMARK    6  A    between atoms: C_18  and  C_21
REMARK                            x       y       z     vdW  Elec       q    Type
REMARK                         _______ _______ _______ _____ _____    ______ ____
ROOT
ATOM      1  N   UNL     1     -32.216 -12.400  19.332  0.00  0.00    -0.307 N 
ATOM      2  C   UNL     1     -31.441 -11.786  18.289  0.00  0.00    +0.246 C 
ATOM      3  O   UNL     1     -30.610 -10.881  18.582  0.00  0.00    -0.270 OA
ATOM      4  H   UNL     1     -32.803 -13.238  19.122  0.00  0.00    +0.149 HD
ENDROOT
BRANCH   2   5
ATOM      5  C   UNL     1     -31.583 -12.206  16.875  0.00  0.00    +0.055 A 
ATOM      6  C   UNL     1     -31.969 -11.276  15.897  0.00  0.00    +0.016 A 
ATOM      7  C   UNL     1     -32.107 -11.670  14.565  0.00  0.00    +0.033 A 
ATOM      8  C   UNL     1     -31.864 -13.003  14.211  0.00  0.00    +0.144 A 
ATOM      9  N   UNL     1     -31.508 -13.897  15.174  0.00  0.00    -0.250 NA
ATOM     10  C   UNL     1     -31.363 -13.537  16.478  0.00  0.00    +0.124 A 
BRANCH   8  11
ATOM     11  C   UNL     1     -32.012 -13.450  12.787  0.00  0.00    +0.434 C 
ATOM     12  F   UNL     1     -33.336 -13.738  12.503  0.00  0.00    -0.164 F 
ATOM     13  F   UNL     1     -31.579 -12.449  11.938  0.00  0.00    -0.164 F 
ATOM     14  F   UNL     1     -31.254 -14.588  12.574  0.00  0.00    -0.164 F 
ENDBRANCH   8  11
ENDBRANCH   2   5
BRANCH   1  15
ATOM     15  C   UNL     1     -32.148 -11.953  20.722  0.00  0.00    +0.139 C 
BRANCH  15  19
ATOM     16  C   UNL     1     -32.956  -7.723  21.006  0.00  0.00    +0.105 A 
ATOM     17  C   UNL     1     -33.952  -8.605  20.569  0.00  0.00    +0.029 A 
ATOM     18  C   UNL     1     -33.686  -9.974  20.470  0.00  0.00    +0.007 A 
ATOM     19  C   UNL     1     -32.420 -10.476  20.809  0.00  0.00    -0.030 A 
ATOM     20  C   UNL     1     -31.426  -9.590  21.257  0.00  0.00    +0.007 A 
ATOM     21  C   UNL     1     -31.694  -8.222  21.355  0.00  0.00    +0.029 A 
BRANCH  16  22
ATOM     22  S   UNL     1     -33.300  -6.002  21.147  0.00  0.00    +0.056 S 
ATOM     23  O   UNL     1     -34.477  -5.793  22.059  0.00  0.00    -0.153 OA
ATOM     24  O   UNL     1     -33.631  -5.437  19.795  0.00  0.00    -0.153 OA
BRANCH  22  25
ATOM     25  N   UNL     1     -31.916  -5.190  21.788  0.00  0.00    -0.204 NA
ATOM     26  H   UNL     1     -31.923  -5.342  22.822  0.00  0.00    +0.144 HD
ATOM     27  H   UNL     1     -31.074  -5.684  21.416  0.00  0.00    +0.144 HD
ENDBRANCH  22  25
ENDBRANCH  16  22
ENDBRANCH  15  19
ENDBRANCH   1  15
TORSDOF 6
ENDMDL
MODEL 7
REMARK VINA RESULT:    -2.049      5.228      7.642
REMARK INTER + INTRA:          -3.231
REMARK INTER:                  -2.611
REMARK INTRA:                  -0.620
REMARK UNBOUND:                -0.523
REMARK  Name = 
REMARK  6 active torsions:
REMARK  status: ('A' for Active; 'I' for Inactive)
REMARK    1  A    between atoms: N_1  and  S_2
REMARK    2  A    between atoms: S_2  and  C_5
REMARK    3  A    between atoms: C_8  and  C_11
REMARK    4  A    between atoms: C_11  and  N_12
REMARK    5  A    between atoms: C_13  and  C_15
REMARK    6  A    between atoms: C_18  and  C_21
REMARK                            x       y       z     vdW  Elec       q    Type
REMARK                         _______ _______ _______ _____ _____    ______ ____
ROOT
ATOM      1  N   UNL     1     -32.603 -11.476  18.723  0.00  0.00    -0.307 N 
ATOM      2  C   UNL     1     -32.872 -10.103  18.392  0.00  0.00    +0.246 C 
ATOM      3  O   UNL     1     -33.710  -9.834  17.487  0.00  0.00    -0.270 OA
ATOM      4  H   UNL     1     -32.018 -11.707  19.557  0.00  0.00    +0.149 HD
ENDROOT
BRANCH   2   5
ATOM      5  C   UNL     1     -32.198  -8.993  19.106  0.00  0.00    +0.055 A 
ATOM      6  C   UNL     1     -32.890  -7.801  19.374  0.00  0.00    +0.016 A 
ATOM      7  C   UNL     1     -32.258  -6.754  20.044  0.00  0.00    +0.033 A 
ATOM      8  C   UNL     1     -30.922  -6.897  20.443  0.00  0.00    +0.144 A 
ATOM      9  N   UNL     1     -30.260  -8.052  20.161  0.00  0.00    -0.250 NA
ATOM     10  C   UNL     1     -30.856  -9.088  19.513  0.00  0.00    +0.124 A 
BRANCH   8  11
ATOM     11  C   UNL     1     -30.220  -5.781  21.159  0.00  0.00    +0.434 C 
ATOM     12  F   UNL     1     -31.130  -4.994  21.843  0.00  0.00    -0.164 F 
ATOM     13  F   UNL     1     -29.314  -6.306  22.062  0.00  0.00    -0.164 F 
ATOM     14  F   UNL     1     -29.545  -4.992  20.245  0.00  0.00    -0.164 F 
ENDBRANCH   8  11
ENDBRANCH   2   5
BRANCH   1  15
ATOM     15  C   UNL     1     -33.198 -12.588  17.984  0.00  0.00    +0.139 C 
BRANCH  15  19
ATOM     16  C   UNL     1     -30.664 -13.653  14.657  0.00  0.00    +0.105 A 
ATOM     17  C   UNL     1     -31.764 -12.807  14.466  0.00  0.00    +0.029 A 
ATOM     18  C   UNL     1     -32.588 -12.470  15.543  0.00  0.00    +0.007 A 
ATOM     19  C   UNL     1     -32.320 -12.974  16.825  0.00  0.00    -0.030 A 
ATOM     20  C   UNL     1     -31.210 -13.812  17.016  0.00  0.00    +0.007 A 
ATOM     21  C   UNL     1     -30.386 -14.148  15.937  0.00  0.00    +0.029 A 
BRANCH  16  22
ATOM     22  S   UNL     1     -29.617 -14.060  13.301  0.00  0.00    +0.056 S 
ATOM     23  O   UNL     1     -29.323 -12.825  12.497  0.00  0.00    -0.153 OA
ATOM     24  O   UNL     1     -30.300 -15.062  12.414  0.00  0.00    -0.153 OA
BRANCH  22  25
ATOM     25  N   UNL     1     -28.140 -14.731  13.898  0.00  0.00    -0.204 NA
ATOM     26  H   UNL     1     -27.427 -13.969  13.876  0.00  0.00    +0.144 HD
ATOM     27  H   UNL     1     -28.298 -14.969  14.903  0.00  0.00    +0.144 HD
ENDBRANCH  22  25
ENDBRANCH  16  22
ENDBRANCH  15  19
ENDBRANCH   1  15
TORSDOF 6
ENDMDL
MODEL 8
REMARK VINA RESULT:    -1.631      3.219      4.073
REMARK INTER + INTRA:          -2.678
REMARK INTER:                  -3.088
REMARK INTRA:                   0.410
REMARK UNBOUND:                -0.523
REMARK  Name = 
REMARK  6 active torsions:
REMARK  status: ('A' for Active; 'I' for Inactive)
REMARK    1  A    between atoms: N_1  and  S_2
REMARK    2  A    between atoms: S_2  and  C_5
REMARK    3  A    between atoms: C_8  and  C_11
REMARK    4  A    between atoms: C_11  and  N_12
REMARK    5  A    between atoms: C_13  and  C_15
REMARK    6  A    between atoms: C_18  and  C_21
REMARK                            x       y       z     vdW  Elec       q    Type
REMARK                         _______ _______ _______ _____ _____    ______ ____
ROOT
ATOM      1  N   UNL     1     -31.376 -10.348  19.395  0.00  0.00    -0.307 N 
ATOM      2  C   UNL     1     -31.088 -11.753  19.292  0.00  0.00    +0.246 C 
ATOM      3  O   UNL     1     -31.972 -12.538  18.848  0.00  0.00    -0.270 OA
ATOM      4  H   UNL     1     -30.613  -9.674  19.630  0.00  0.00    +0.149 HD
ENDROOT
BRANCH   2   5
ATOM      5  C   UNL     1     -29.766 -12.298  19.679  0.00  0.00    +0.055 A 
ATOM      6  C   UNL     1     -29.676 -13.534  20.338  0.00  0.00    +0.016 A 
ATOM      7  C   UNL     1     -28.432 -14.048  20.707  0.00  0.00    +0.033 A 
ATOM      8  C   UNL     1     -27.272 -13.318  20.420  0.00  0.00    +0.144 A 
ATOM      9  N   UNL     1     -27.376 -12.113  19.797  0.00  0.00    -0.250 NA
ATOM     10  C   UNL     1     -28.577 -11.592  19.424  0.00  0.00    +0.124 A 
BRANCH   8  11
ATOM     11  C   UNL     1     -25.924 -13.848  20.813  0.00  0.00    +0.434 C 
ATOM     12  F   UNL     1     -25.982 -14.446  22.060  0.00  0.00    -0.164 F 
ATOM     13  F   UNL     1     -25.505 -14.784  19.886  0.00  0.00    -0.164 F 
ATOM     14  F   UNL     1     -25.010 -12.811  20.857  0.00  0.00    -0.164 F 
ENDBRANCH   8  11
ENDBRANCH   2   5
BRANCH   1  15
ATOM     15  C   UNL     1     -32.695  -9.797  19.090  0.00  0.00    +0.139 C 
BRANCH  15  19
ATOM     16  C   UNL     1     -33.791 -10.807  15.039  0.00  0.00    +0.105 A 
ATOM     17  C   UNL     1     -32.932  -9.730  15.292  0.00  0.00    +0.029 A 
ATOM     18  C   UNL     1     -32.585  -9.399  16.605  0.00  0.00    +0.007 A 
ATOM     19  C   UNL     1     -33.091 -10.144  17.681  0.00  0.00    -0.030 A 
ATOM     20  C   UNL     1     -33.944 -11.231  17.424  0.00  0.00    +0.007 A 
ATOM     21  C   UNL     1     -34.290 -11.560  16.110  0.00  0.00    +0.029 A 
BRANCH  16  22
ATOM     22  S   UNL     1     -34.211 -11.232  13.383  0.00  0.00    +0.056 S 
ATOM     23  O   UNL     1     -34.987 -10.111  12.752  0.00  0.00    -0.153 OA
ATOM     24  O   UNL     1     -35.062 -12.471  13.377  0.00  0.00    -0.153 OA
BRANCH  22  25
ATOM     25  N   UNL     1     -32.766 -11.521  12.480  0.00  0.00    -0.204 NA
ATOM     26  H   UNL     1     -32.020 -10.920  12.897  0.00  0.00    +0.144 HD
ATOM     27  H   UNL     1     -32.490 -12.513  12.656  0.00  0.00    +0.144 HD
ENDBRANCH  22  25
ENDBRANCH  16  22
ENDBRANCH  15  19
ENDBRANCH   1  15
TORSDOF 6
ENDMDL
MODEL 9
REMARK VINA RESULT:    -0.718      5.363      7.457
REMARK INTER + INTRA:          -1.472
REMARK INTER:                  -0.911
REMARK INTRA:                  -0.561
REMARK UNBOUND:                -0.523
REMARK  Name = 
REMARK  6 active torsions:
REMARK  status: ('A' for Active; 'I' for Inactive)
REMARK    1  A    between atoms: N_1  and  S_2
REMARK    2  A    between atoms: S_2  and  C_5
REMARK    3  A    between atoms: C_8  and  C_11
REMARK    4  A    between atoms: C_11  and  N_12
REMARK    5  A    between atoms: C_13  and  C_15
REMARK    6  A    between atoms: C_18  and  C_21
REMARK                            x       y       z     vdW  Elec       q    Type
REMARK                         _______ _______ _______ _____ _____    ______ ____
ROOT
ATOM      1  N   UNL     1     -30.458 -12.600  19.080  0.00  0.00    -0.307 N 
ATOM      2  C   UNL     1     -31.545 -11.819  19.604  0.00  0.00    +0.246 C 
ATOM      3  O   UNL     1     -32.691 -12.339  19.708  0.00  0.00    -0.270 OA
ATOM      4  H   UNL     1     -29.483 -12.228  19.116  0.00  0.00    +0.149 HD
ENDROOT
BRANCH   2   5
ATOM      5  C   UNL     1     -31.344 -10.418  20.042  0.00  0.00    +0.055 A 
ATOM      6  C   UNL     1     -32.117  -9.885  21.086  0.00  0.00    +0.016 A 
ATOM      7  C   UNL     1     -31.932  -8.566  21.499  0.00  0.00    +0.033 A 
ATOM      8  C   UNL     1     -30.972  -7.771  20.858  0.00  0.00    +0.144 A 
ATOM      9  N   UNL     1     -30.243  -8.296  19.836  0.00  0.00    -0.250 NA
ATOM     10  C   UNL     1     -30.402  -9.580  19.418  0.00  0.00    +0.124 A 
BRANCH   8  11
ATOM     11  C   UNL     1     -30.760  -6.347  21.281  0.00  0.00    +0.434 C 
ATOM     12  F   UNL     1     -31.816  -5.910  22.062  0.00  0.00    -0.164 F 
ATOM     13  F   UNL     1     -29.591  -6.248  22.012  0.00  0.00    -0.164 F 
ATOM     14  F   UNL     1     -30.668  -5.538  20.163  0.00  0.00    -0.164 F 
ENDBRANCH   8  11
ENDBRANCH   2   5
BRANCH   1  15
ATOM     15  C   UNL     1     -30.646 -13.958  18.573  0.00  0.00    +0.139 C 
BRANCH  15  19
ATOM     16  C   UNL     1     -30.608 -13.918  14.257  0.00  0.00    +0.105 A 
ATOM     17  C   UNL     1     -31.695 -13.384  14.960  0.00  0.00    +0.029 A 
ATOM     18  C   UNL     1     -31.709 -13.404  16.357  0.00  0.00    +0.007 A 
ATOM     19  C   UNL     1     -30.634 -13.960  17.069  0.00  0.00    -0.030 A 
ATOM     20  C   UNL     1     -29.540 -14.485  16.362  0.00  0.00    +0.007 A 
ATOM     21  C   UNL     1     -29.528 -14.463  14.964  0.00  0.00    +0.029 A 
BRANCH  16  22
ATOM     22  S   UNL     1     -30.585 -13.873  12.498  0.00  0.00    +0.056 S 
ATOM     23  O   UNL     1     -31.321 -15.063  11.949  0.00  0.00    -0.153 OA
ATOM     24  O   UNL     1     -29.164 -13.915  12.006  0.00  0.00    -0.153 OA
BRANCH  22  25
ATOM     25  N   UNL     1     -31.340 -12.418  11.951  0.00  0.00    -0.204 NA
ATOM     26  H   UNL     1     -32.060 -12.693  11.245  0.00  0.00    +0.144 HD
ATOM     27  H   UNL     1     -31.855 -12.017  12.766  0.00  0.00    +0.144 HD
ENDBRANCH  22  25
ENDBRANCH  16  22
ENDBRANCH  15  19
ENDBRANCH   1  15
TORSDOF 6
ENDMDL
