MODEL 1
REMARK VINA RESULT:    -5.422      0.000      0.000
REMARK INTER + INTRA:          -9.199
REMARK INTER:                  -7.799
REMARK INTRA:                  -1.400
REMARK UNBOUND:                -1.400
REMARK  Name = 
REMARK  10 active torsions:
REMARK  status: ('A' for Active; 'I' for Inactive)
REMARK    1  A    between atoms: C_1  and  C_2
REMARK    2  A    between atoms: N_4  and  C_5
REMARK    3  A    between atoms: C_8  and  C_11
REMARK    4  A    between atoms: N_13  and  C_14
REMARK    5  A    between atoms: N_13  and  C_21
REMARK    6  A    between atoms: C_14  and  C_15
REMARK    7  A    between atoms: C_21  and  C_22
REMARK    8  A    between atoms: C_22  and  C_23
REMARK    9  A    between atoms: C_22  and  C_24
REMARK   10  A    between atoms: C_24  and  O_26
REMARK                            x       y       z     vdW  Elec       q    Type
REMARK                         _______ _______ _______ _____ _____    ______ ____
ROOT
ATOM      1  C   UNL     1     -30.576 -10.550  16.730  0.00  0.00    +0.247 C 
ATOM      2  O   UNL     1     -30.064  -9.494  16.271  0.00  0.00    -0.270 OA
ATOM      3  N   UNL     1     -31.949 -10.883  16.420  0.00  0.00    -0.292 N 
ENDROOT
BRANCH   1   7
ATOM      4  C   UNL     1     -28.196 -13.055  19.266  0.00  0.00    +0.033 A 
ATOM      5  C   UNL     1     -28.782 -13.574  18.102  0.00  0.00    +0.024 A 
ATOM      6  C   UNL     1     -29.546 -12.754  17.267  0.00  0.00    +0.015 A 
ATOM      7  C   UNL     1     -29.757 -11.411  17.598  0.00  0.00    +0.037 A 
ATOM      8  C   UNL     1     -29.175 -10.885  18.759  0.00  0.00    +0.015 A 
ATOM      9  C   UNL     1     -28.410 -11.703  19.596  0.00  0.00    +0.024 A 
BRANCH   4  13
ATOM     10  C   UNL     1     -25.393 -14.604  21.459  0.00  0.00    +0.109 C 
ATOM     11  C   UNL     1     -26.040 -13.768  20.403  0.00  0.00    +0.214 C 
ATOM     12  O   UNL     1     -25.329 -12.993  19.709  0.00  0.00    -0.276 OA
ATOM     13  N   UNL     1     -27.440 -13.926  20.123  0.00  0.00    -0.286 N 
ATOM     14  H   UNL     1     -27.916 -14.776  20.505  0.00  0.00    +0.155 HD
ENDBRANCH   4  13
ENDBRANCH   1   7
BRANCH   3  15
ATOM     15  C   UNL     1     -32.594 -10.255  15.256  0.00  0.00    +0.143 C 
BRANCH  15  16
ATOM     16  C   UNL     1     -32.916 -11.268  14.182  0.00  0.00    -0.030 A 
ATOM     17  C   UNL     1     -34.195 -11.321  13.598  0.00  0.00    +0.005 A 
ATOM     18  C   UNL     1     -34.470 -12.246  12.584  0.00  0.00    +0.000 A 
ATOM     19  C   UNL     1     -33.471 -13.112  12.137  0.00  0.00    +0.000 A 
ATOM     20  C   UNL     1     -32.193 -13.057  12.700  0.00  0.00    +0.000 A 
ATOM     21  C   UNL     1     -31.914 -12.136  13.715  0.00  0.00    +0.005 A 
ENDBRANCH  15  16
ENDBRANCH   3  15
BRANCH   3  22
ATOM     22  C   UNL     1     -32.787 -11.546  17.435  0.00  0.00    +0.122 C 
BRANCH  22  23
ATOM     23  C   UNL     1     -32.957 -10.680  18.703  0.00  0.00    +0.112 C 
ATOM     24  C   UNL     1     -32.840 -11.510  19.988  0.00  0.00    +0.021 C 
BRANCH  23  25
ATOM     25  C   UNL     1     -34.291  -9.985  18.674  0.00  0.00    +0.309 C 
ATOM     26  O   UNL     1     -35.056 -10.128  17.683  0.00  0.00    -0.251 OA
BRANCH  25  27
ATOM     27  O   UNL     1     -34.691  -9.196  19.750  0.00  0.00    -0.480 OA
ATOM     28  H   UNL     1     -34.609  -9.534  20.700  0.00  0.00    +0.295 HD
ENDBRANCH  25  27
ENDBRANCH  23  25
ENDBRANCH  22  23
ENDBRANCH   3  22
TORSDOF 8
ENDMDL
MODEL 2
REMARK VINA RESULT:    -4.822      0.890      1.753
REMARK INTER + INTRA:          -8.336
REMARK INTER:                  -7.655
REMARK INTRA:                  -0.682
REMARK UNBOUND:                -1.400
REMARK  Name = 
REMARK  10 active torsions:
REMARK  status: ('A' for Active; 'I' for Inactive)
REMARK    1  A    between atoms: C_1  and  C_2
REMARK    2  A    between atoms: N_4  and  C_5
REMARK    3  A    between atoms: C_8  and  C_11
REMARK    4  A    between atoms: N_13  and  C_14
REMARK    5  A    between atoms: N_13  and  C_21
REMARK    6  A    between atoms: C_14  and  C_15
REMARK    7  A    between atoms: C_21  and  C_22
REMARK    8  A    between atoms: C_22  and  C_23
REMARK    9  A    between atoms: C_22  and  C_24
REMARK   10  A    between atoms: C_24  and  O_26
REMARK                            x       y       z     vdW  Elec       q    Type
REMARK                         _______ _______ _______ _____ _____    ______ ____
ROOT
ATOM      1  C   UNL     1     -30.667 -10.345  16.883  0.00  0.00    +0.247 C 
ATOM      2  O   UNL     1     -30.061  -9.427  16.268  0.00  0.00    -0.270 OA
ATOM      3  N   UNL     1     -32.105 -10.456  16.783  0.00  0.00    -0.292 N 
ENDROOT
BRANCH   1   7
ATOM      4  C   UNL     1     -28.376 -13.053  19.289  0.00  0.00    +0.033 A 
ATOM      5  C   UNL     1     -28.569 -11.726  19.701  0.00  0.00    +0.024 A 
ATOM      6  C   UNL     1     -29.329 -10.847  18.924  0.00  0.00    +0.015 A 
ATOM      7  C   UNL     1     -29.883 -11.274  17.712  0.00  0.00    +0.037 A 
ATOM      8  C   UNL     1     -29.693 -12.598  17.294  0.00  0.00    +0.015 A 
ATOM      9  C   UNL     1     -28.935 -13.479  18.070  0.00  0.00    +0.024 A 
BRANCH   4  13
ATOM     10  C   UNL     1     -25.459 -14.584  21.342  0.00  0.00    +0.109 C 
ATOM     11  C   UNL     1     -26.164 -13.735  20.335  0.00  0.00    +0.214 C 
ATOM     12  O   UNL     1     -25.499 -12.914  19.648  0.00  0.00    -0.276 OA
ATOM     13  N   UNL     1     -27.566 -13.928  20.092  0.00  0.00    -0.286 N 
ATOM     14  H   UNL     1     -28.004 -14.805  20.458  0.00  0.00    +0.155 HD
ENDBRANCH   4  13
ENDBRANCH   1   7
BRANCH   3  15
ATOM     15  C   UNL     1     -32.799  -9.806  15.660  0.00  0.00    +0.143 C 
BRANCH  15  16
ATOM     16  C   UNL     1     -33.065 -10.775  14.532  0.00  0.00    -0.030 A 
ATOM     17  C   UNL     1     -32.094 -11.717  14.143  0.00  0.00    +0.005 A 
ATOM     18  C   UNL     1     -32.365 -12.627  13.116  0.00  0.00    +0.000 A 
ATOM     19  C   UNL     1     -33.608 -12.616  12.480  0.00  0.00    +0.000 A 
ATOM     20  C   UNL     1     -34.584 -11.695  12.869  0.00  0.00    +0.000 A 
ATOM     21  C   UNL     1     -34.317 -10.781  13.893  0.00  0.00    +0.005 A 
ENDBRANCH  15  16
ENDBRANCH   3  15
BRANCH   3  22
ATOM     22  C   UNL     1     -32.886 -10.895  17.954  0.00  0.00    +0.122 C 
BRANCH  22  23
ATOM     23  C   UNL     1     -33.487  -9.704  18.731  0.00  0.00    +0.112 C 
ATOM     24  C   UNL     1     -32.540  -8.496  18.756  0.00  0.00    +0.021 C 
BRANCH  23  25
ATOM     25  C   UNL     1     -33.809 -10.119  20.140  0.00  0.00    +0.309 C 
ATOM     26  O   UNL     1     -33.210 -11.097  20.662  0.00  0.00    -0.251 OA
BRANCH  25  27
ATOM     27  O   UNL     1     -34.756  -9.413  20.878  0.00  0.00    -0.480 OA
ATOM     28  H   UNL     1     -35.742  -9.488  20.663  0.00  0.00    +0.295 HD
ENDBRANCH  25  27
ENDBRANCH  23  25
ENDBRANCH  22  23
ENDBRANCH   3  22
TORSDOF 8
ENDMDL
MODEL 3
REMARK VINA RESULT:    -4.675      2.410      3.385
REMARK INTER + INTRA:          -8.124
REMARK INTER:                  -6.657
REMARK INTRA:                  -1.467
REMARK UNBOUND:                -1.400
REMARK  Name = 
REMARK  10 active torsions:
REMARK  status: ('A' for Active; 'I' for Inactive)
REMARK    1  A    between atoms: C_1  and  C_2
REMARK    2  A    between atoms: N_4  and  C_5
REMARK    3  A    between atoms: C_8  and  C_11
REMARK    4  A    between atoms: N_13  and  C_14
REMARK    5  A    between atoms: N_13  and  C_21
REMARK    6  A    between atoms: C_14  and  C_15
REMARK    7  A    between atoms: C_21  and  C_22
REMARK    8  A    between atoms: C_22  and  C_23
REMARK    9  A    between atoms: C_22  and  C_24
REMARK   10  A    between atoms: C_24  and  O_26
REMARK                            x       y       z     vdW  Elec       q    Type
REMARK                         _______ _______ _______ _____ _____    ______ ____
ROOT
ATOM      1  C   UNL     1     -32.882 -11.851  17.789  0.00  0.00    +0.247 C 
ATOM      2  O   UNL     1     -33.652 -12.592  17.121  0.00  0.00    -0.270 OA
ATOM      3  N   UNL     1     -33.202 -10.453  17.973  0.00  0.00    -0.292 N 
ENDROOT
BRANCH   1   7
ATOM      4  C   UNL     1     -29.310 -13.562  19.428  0.00  0.00    +0.033 A 
ATOM      5  C   UNL     1     -29.497 -13.502  18.039  0.00  0.00    +0.024 A 
ATOM      6  C   UNL     1     -30.654 -12.930  17.503  0.00  0.00    +0.015 A 
ATOM      7  C   UNL     1     -31.654 -12.436  18.350  0.00  0.00    +0.037 A 
ATOM      8  C   UNL     1     -31.474 -12.493  19.738  0.00  0.00    +0.015 A 
ATOM      9  C   UNL     1     -30.317 -13.063  20.275  0.00  0.00    +0.024 A 
BRANCH   4  13
ATOM     10  C   UNL     1     -25.777 -14.171  20.915  0.00  0.00    +0.109 C 
ATOM     11  C   UNL     1     -26.886 -13.489  20.182  0.00  0.00    +0.214 C 
ATOM     12  O   UNL     1     -26.691 -12.341  19.699  0.00  0.00    -0.276 OA
ATOM     13  N   UNL     1     -28.124 -14.180  19.952  0.00  0.00    -0.286 N 
ATOM     14  H   UNL     1     -28.134 -15.216  20.102  0.00  0.00    +0.155 HD
ENDBRANCH   4  13
ENDBRANCH   1   7
BRANCH   3  15
ATOM     15  C   UNL     1     -34.588 -10.002  17.773  0.00  0.00    +0.143 C 
BRANCH  15  16
ATOM     16  C   UNL     1     -34.780  -9.375  16.412  0.00  0.00    -0.030 A 
ATOM     17  C   UNL     1     -34.876  -7.979  16.264  0.00  0.00    +0.005 A 
ATOM     18  C   UNL     1     -35.023  -7.411  14.995  0.00  0.00    +0.000 A 
ATOM     19  C   UNL     1     -35.062  -8.227  13.863  0.00  0.00    +0.000 A 
ATOM     20  C   UNL     1     -34.953  -9.614  13.996  0.00  0.00    +0.000 A 
ATOM     21  C   UNL     1     -34.807 -10.186  15.264  0.00  0.00    +0.005 A 
ENDBRANCH  15  16
ENDBRANCH   3  15
BRANCH   3  22
ATOM     22  C   UNL     1     -32.118  -9.454  18.006  0.00  0.00    +0.122 C 
BRANCH  22  23
ATOM     23  C   UNL     1     -31.983  -8.791  19.394  0.00  0.00    +0.112 C 
ATOM     24  C   UNL     1     -32.425  -7.321  19.376  0.00  0.00    +0.021 C 
BRANCH  23  25
ATOM     25  C   UNL     1     -30.559  -8.881  19.870  0.00  0.00    +0.309 C 
ATOM     26  O   UNL     1     -29.691  -9.455  19.159  0.00  0.00    -0.251 OA
BRANCH  25  27
ATOM     27  O   UNL     1     -30.192  -8.315  21.089  0.00  0.00    -0.480 OA
ATOM     28  H   UNL     1     -30.718  -8.511  21.931  0.00  0.00    +0.295 HD
ENDBRANCH  25  27
ENDBRANCH  23  25
ENDBRANCH  22  23
ENDBRANCH   3  22
TORSDOF 8
ENDMDL
MODEL 4
REMARK VINA RESULT:    -4.619      2.756      6.191
REMARK INTER + INTRA:          -8.045
REMARK INTER:                  -6.672
REMARK INTRA:                  -1.372
REMARK UNBOUND:                -1.400
REMARK  Name = 
REMARK  10 active torsions:
REMARK  status: ('A' for Active; 'I' for Inactive)
REMARK    1  A    between atoms: C_1  and  C_2
REMARK    2  A    between atoms: N_4  and  C_5
REMARK    3  A    between atoms: C_8  and  C_11
REMARK    4  A    between atoms: N_13  and  C_14
REMARK    5  A    between atoms: N_13  and  C_21
REMARK    6  A    between atoms: C_14  and  C_15
REMARK    7  A    between atoms: C_21  and  C_22
REMARK    8  A    between atoms: C_22  and  C_23
REMARK    9  A    between atoms: C_22  and  C_24
REMARK   10  A    between atoms: C_24  and  O_26
REMARK                            x       y       z     vdW  Elec       q    Type
REMARK                         _______ _______ _______ _____ _____    ______ ____
ROOT
ATOM      1  C   UNL     1     -31.752 -12.873  17.703  0.00  0.00    +0.247 C 
ATOM      2  O   UNL     1     -32.705 -13.697  17.695  0.00  0.00    -0.270 OA
ATOM      3  N   UNL     1     -30.397 -13.332  17.493  0.00  0.00    -0.292 N 
ENDROOT
BRANCH   1   7
ATOM      4  C   UNL     1     -32.625  -8.738  18.417  0.00  0.00    +0.033 A 
ATOM      5  C   UNL     1     -33.061  -9.722  19.317  0.00  0.00    +0.024 A 
ATOM      6  C   UNL     1     -32.763 -11.069  19.093  0.00  0.00    +0.015 A 
ATOM      7  C   UNL     1     -32.050 -11.454  17.952  0.00  0.00    +0.037 A 
ATOM      8  C   UNL     1     -31.612 -10.476  17.048  0.00  0.00    +0.015 A 
ATOM      9  C   UNL     1     -31.908  -9.129  17.271  0.00  0.00    +0.024 A 
BRANCH   4  13
ATOM     10  C   UNL     1     -32.588  -5.046  19.616  0.00  0.00    +0.109 C 
ATOM     11  C   UNL     1     -32.284  -6.509  19.586  0.00  0.00    +0.214 C 
ATOM     12  O   UNL     1     -31.490  -6.990  20.437  0.00  0.00    -0.276 OA
ATOM     13  N   UNL     1     -32.970  -7.363  18.657  0.00  0.00    -0.286 N 
ATOM     14  H   UNL     1     -33.822  -6.981  18.186  0.00  0.00    +0.155 HD
ENDBRANCH   4  13
ENDBRANCH   1   7
BRANCH   3  15
ATOM     15  C   UNL     1     -30.172 -14.637  16.852  0.00  0.00    +0.143 C 
BRANCH  15  16
ATOM     16  C   UNL     1     -29.898 -14.493  15.374  0.00  0.00    -0.030 A 
ATOM     17  C   UNL     1     -28.646 -14.840  14.833  0.00  0.00    +0.005 A 
ATOM     18  C   UNL     1     -28.416 -14.729  13.458  0.00  0.00    +0.000 A 
ATOM     19  C   UNL     1     -29.433 -14.285  12.611  0.00  0.00    +0.000 A 
ATOM     20  C   UNL     1     -30.685 -13.953  13.136  0.00  0.00    +0.000 A 
ATOM     21  C   UNL     1     -30.919 -14.060  14.510  0.00  0.00    +0.005 A 
ENDBRANCH  15  16
ENDBRANCH   3  15
BRANCH   3  22
ATOM     22  C   UNL     1     -29.287 -12.686  18.218  0.00  0.00    +0.122 C 
BRANCH  22  23
ATOM     23  C   UNL     1     -29.172 -13.190  19.673  0.00  0.00    +0.112 C 
ATOM     24  C   UNL     1     -29.351 -12.057  20.691  0.00  0.00    +0.021 C 
BRANCH  23  25
ATOM     25  C   UNL     1     -27.837 -13.849  19.884  0.00  0.00    +0.309 C 
ATOM     26  O   UNL     1     -26.791 -13.317  19.426  0.00  0.00    -0.251 OA
BRANCH  25  27
ATOM     27  O   UNL     1     -27.751 -15.040  20.602  0.00  0.00    -0.480 OA
ATOM     28  H   UNL     1     -28.585 -15.505  20.937  0.00  0.00    +0.295 HD
ENDBRANCH  25  27
ENDBRANCH  23  25
ENDBRANCH  22  23
ENDBRANCH   3  22
TORSDOF 8
ENDMDL
MODEL 5
REMARK VINA RESULT:    -4.587      1.664      2.307
REMARK INTER + INTRA:          -7.997
REMARK INTER:                  -6.837
REMARK INTRA:                  -1.160
REMARK UNBOUND:                -1.400
REMARK  Name = 
REMARK  10 active torsions:
REMARK  status: ('A' for Active; 'I' for Inactive)
REMARK    1  A    between atoms: C_1  and  C_2
REMARK    2  A    between atoms: N_4  and  C_5
REMARK    3  A    between atoms: C_8  and  C_11
REMARK    4  A    between atoms: N_13  and  C_14
REMARK    5  A    between atoms: N_13  and  C_21
REMARK    6  A    between atoms: C_14  and  C_15
REMARK    7  A    between atoms: C_21  and  C_22
REMARK    8  A    between atoms: C_22  and  C_23
REMARK    9  A    between atoms: C_22  and  C_24
REMARK   10  A    between atoms: C_24  and  O_26
REMARK                            x       y       z     vdW  Elec       q    Type
REMARK                         _______ _______ _______ _____ _____    ______ ____
ROOT
ATOM      1  C   UNL     1     -30.786  -9.952  17.199  0.00  0.00    +0.247 C 
ATOM      2  O   UNL     1     -30.356  -9.414  16.143  0.00  0.00    -0.270 OA
ATOM      3  N   UNL     1     -32.057  -9.544  17.754  0.00  0.00    -0.292 N 
ENDROOT
BRANCH   1   7
ATOM      4  C   UNL     1     -28.367 -12.936  19.101  0.00  0.00    +0.033 A 
ATOM      5  C   UNL     1     -28.386 -11.620  19.588  0.00  0.00    +0.024 A 
ATOM      6  C   UNL     1     -29.187 -10.650  18.978  0.00  0.00    +0.015 A 
ATOM      7  C   UNL     1     -29.957 -10.975  17.855  0.00  0.00    +0.037 A 
ATOM      8  C   UNL     1     -29.942 -12.287  17.363  0.00  0.00    +0.015 A 
ATOM      9  C   UNL     1     -29.143 -13.259  17.973  0.00  0.00    +0.024 A 
BRANCH   4  13
ATOM     10  C   UNL     1     -25.394 -14.671  20.896  0.00  0.00    +0.109 C 
ATOM     11  C   UNL     1     -26.137 -13.674  20.067  0.00  0.00    +0.214 C 
ATOM     12  O   UNL     1     -25.520 -12.678  19.602  0.00  0.00    -0.276 OA
ATOM     13  N   UNL     1     -27.513 -13.907  19.729  0.00  0.00    -0.286 N 
ATOM     14  H   UNL     1     -27.892 -14.870  19.879  0.00  0.00    +0.155 HD
ENDBRANCH   4  13
ENDBRANCH   1   7
BRANCH   3  15
ATOM     15  C   UNL     1     -33.027  -8.851  16.891  0.00  0.00    +0.143 C 
BRANCH  15  16
ATOM     16  C   UNL     1     -33.582  -9.768  15.826  0.00  0.00    -0.030 A 
ATOM     17  C   UNL     1     -34.214  -9.249  14.681  0.00  0.00    +0.005 A 
ATOM     18  C   UNL     1     -34.697 -10.110  13.690  0.00  0.00    +0.000 A 
ATOM     19  C   UNL     1     -34.541 -11.491  13.824  0.00  0.00    +0.000 A 
ATOM     20  C   UNL     1     -33.901 -12.016  14.950  0.00  0.00    +0.000 A 
ATOM     21  C   UNL     1     -33.419 -11.160  15.945  0.00  0.00    +0.005 A 
ENDBRANCH  15  16
ENDBRANCH   3  15
BRANCH   3  22
ATOM     22  C   UNL     1     -32.235  -9.499  19.216  0.00  0.00    +0.122 C 
BRANCH  22  23
ATOM     23  C   UNL     1     -33.290 -10.515  19.704  0.00  0.00    +0.112 C 
ATOM     24  C   UNL     1     -34.062 -10.002  20.927  0.00  0.00    +0.021 C 
BRANCH  23  25
ATOM     25  C   UNL     1     -32.627 -11.822  20.041  0.00  0.00    +0.309 C 
ATOM     26  O   UNL     1     -31.859 -11.903  21.038  0.00  0.00    -0.251 OA
BRANCH  25  27
ATOM     27  O   UNL     1     -32.872 -12.952  19.264  0.00  0.00    -0.480 OA
ATOM     28  H   UNL     1     -32.762 -13.881  19.649  0.00  0.00    +0.295 HD
ENDBRANCH  25  27
ENDBRANCH  23  25
ENDBRANCH  22  23
ENDBRANCH   3  22
TORSDOF 8
ENDMDL
MODEL 6
REMARK VINA RESULT:    -4.287      2.553      6.555
REMARK INTER + INTRA:          -7.567
REMARK INTER:                  -6.730
REMARK INTRA:                  -0.837
REMARK UNBOUND:                -1.400
REMARK  Name = 
REMARK  10 active torsions:
REMARK  status: ('A' for Active; 'I' for Inactive)
REMARK    1  A    between atoms: C_1  and  C_2
REMARK    2  A    between atoms: N_4  and  C_5
REMARK    3  A    between atoms: C_8  and  C_11
REMARK    4  A    between atoms: N_13  and  C_14
REMARK    5  A    between atoms: N_13  and  C_21
REMARK    6  A    between atoms: C_14  and  C_15
REMARK    7  A    between atoms: C_21  and  C_22
REMARK    8  A    between atoms: C_22  and  C_23
REMARK    9  A    between atoms: C_22  and  C_24
REMARK   10  A    between atoms: C_24  and  O_26
REMARK                            x       y       z     vdW  Elec       q    Type
REMARK                         _______ _______ _______ _____ _____    ______ ____
ROOT
ATOM      1  C   UNL     1     -32.069 -12.896  17.158  0.00  0.00    +0.247 C 
ATOM      2  O   UNL     1     -32.878 -13.851  17.305  0.00  0.00    -0.270 OA
ATOM      3  N   UNL     1     -30.658 -13.162  16.989  0.00  0.00    -0.292 N 
ENDROOT
BRANCH   1   7
ATOM      4  C   UNL     1     -33.583  -8.887  17.247  0.00  0.00    +0.033 A 
ATOM      5  C   UNL     1     -33.036  -9.414  16.068  0.00  0.00    +0.024 A 
ATOM      6  C   UNL     1     -32.556 -10.726  16.034  0.00  0.00    +0.015 A 
ATOM      7  C   UNL     1     -32.591 -11.521  17.186  0.00  0.00    +0.037 A 
ATOM      8  C   UNL     1     -33.136 -11.001  18.368  0.00  0.00    +0.015 A 
ATOM      9  C   UNL     1     -33.618  -9.689  18.403  0.00  0.00    +0.024 A 
BRANCH   4  13
ATOM     10  C   UNL     1     -34.816  -5.388  18.389  0.00  0.00    +0.109 C 
ATOM     11  C   UNL     1     -34.552  -6.858  18.429  0.00  0.00    +0.214 C 
ATOM     12  O   UNL     1     -34.861  -7.512  19.461  0.00  0.00    -0.276 OA
ATOM     13  N   UNL     1     -34.043  -7.526  17.263  0.00  0.00    -0.286 N 
ATOM     14  H   UNL     1     -34.086  -7.011  16.354  0.00  0.00    +0.155 HD
ENDBRANCH   4  13
ENDBRANCH   1   7
BRANCH   3  15
ATOM     15  C   UNL     1     -30.227 -14.502  16.558  0.00  0.00    +0.143 C 
BRANCH  15  16
ATOM     16  C   UNL     1     -29.810 -14.513  15.106  0.00  0.00    -0.030 A 
ATOM     17  C   UNL     1     -30.701 -14.111  14.094  0.00  0.00    +0.005 A 
ATOM     18  C   UNL     1     -30.292 -14.099  12.757  0.00  0.00    +0.000 A 
ATOM     19  C   UNL     1     -28.990 -14.473  12.419  0.00  0.00    +0.000 A 
ATOM     20  C   UNL     1     -28.092 -14.860  13.418  0.00  0.00    +0.000 A 
ATOM     21  C   UNL     1     -28.497 -14.876  14.756  0.00  0.00    +0.005 A 
ENDBRANCH  15  16
ENDBRANCH   3  15
BRANCH   3  22
ATOM     22  C   UNL     1     -29.666 -12.241  17.573  0.00  0.00    +0.122 C 
BRANCH  22  23
ATOM     23  C   UNL     1     -28.768 -12.940  18.617  0.00  0.00    +0.112 C 
ATOM     24  C   UNL     1     -29.441 -13.024  19.993  0.00  0.00    +0.021 C 
BRANCH  23  25
ATOM     25  C   UNL     1     -27.460 -12.209  18.741  0.00  0.00    +0.309 C 
ATOM     26  O   UNL     1     -26.491 -12.744  19.344  0.00  0.00    -0.251 OA
BRANCH  25  27
ATOM     27  O   UNL     1     -27.309 -10.945  18.175  0.00  0.00    -0.480 OA
ATOM     28  H   UNL     1     -26.489 -10.384  18.368  0.00  0.00    +0.295 HD
ENDBRANCH  25  27
ENDBRANCH  23  25
ENDBRANCH  22  23
ENDBRANCH   3  22
TORSDOF 8
ENDMDL
MODEL 7
REMARK VINA RESULT:    -4.213      2.912      5.125
REMARK INTER + INTRA:          -7.460
REMARK INTER:                  -5.692
REMARK INTRA:                  -1.769
REMARK UNBOUND:                -1.400
REMARK  Name = 
REMARK  10 active torsions:
REMARK  status: ('A' for Active; 'I' for Inactive)
REMARK    1  A    between atoms: C_1  and  C_2
REMARK    2  A    between atoms: N_4  and  C_5
REMARK    3  A    between atoms: C_8  and  C_11
REMARK    4  A    between atoms: N_13  and  C_14
REMARK    5  A    between atoms: N_13  and  C_21
REMARK    6  A    between atoms: C_14  and  C_15
REMARK    7  A    between atoms: C_21  and  C_22
REMARK    8  A    between atoms: C_22  and  C_23
REMARK    9  A    between atoms: C_22  and  C_24
REMARK   10  A    between atoms: C_24  and  O_26
REMARK                            x       y       z     vdW  Elec       q    Type
REMARK                         _______ _______ _______ _____ _____    ______ ____
ROOT
ATOM      1  C   UNL     1     -30.573 -12.967  17.766  0.00  0.00    +0.247 C 
ATOM      2  O   UNL     1     -29.911 -13.938  18.221  0.00  0.00    -0.270 OA
ATOM      3  N   UNL     1     -31.101 -13.017  16.421  0.00  0.00    -0.292 N 
ENDROOT
BRANCH   1   7
ATOM      4  C   UNL     1     -31.147  -9.524  20.254  0.00  0.00    +0.033 A 
ATOM      5  C   UNL     1     -32.180 -10.458  20.084  0.00  0.00    +0.024 A 
ATOM      6  C   UNL     1     -31.988 -11.589  19.286  0.00  0.00    +0.015 A 
ATOM      7  C   UNL     1     -30.771 -11.787  18.623  0.00  0.00    +0.037 A 
ATOM      8  C   UNL     1     -29.735 -10.858  18.788  0.00  0.00    +0.015 A 
ATOM      9  C   UNL     1     -29.925  -9.727  19.587  0.00  0.00    +0.024 A 
BRANCH   4  13
ATOM     10  C   UNL     1     -32.348  -6.057  21.520  0.00  0.00    +0.109 C 
ATOM     11  C   UNL     1     -31.965  -7.139  20.565  0.00  0.00    +0.214 C 
ATOM     12  O   UNL     1     -32.082  -6.938  19.326  0.00  0.00    -0.276 OA
ATOM     13  N   UNL     1     -31.380  -8.355  21.058  0.00  0.00    -0.286 N 
ATOM     14  H   UNL     1     -31.030  -8.359  22.043  0.00  0.00    +0.155 HD
ENDBRANCH   4  13
ENDBRANCH   1   7
BRANCH   3  15
ATOM     15  C   UNL     1     -31.249 -14.321  15.756  0.00  0.00    +0.143 C 
BRANCH  15  16
ATOM     16  C   UNL     1     -30.240 -14.500  14.646  0.00  0.00    -0.030 A 
ATOM     17  C   UNL     1     -30.607 -14.322  13.299  0.00  0.00    +0.005 A 
ATOM     18  C   UNL     1     -29.655 -14.462  12.284  0.00  0.00    +0.000 A 
ATOM     19  C   UNL     1     -28.330 -14.766  12.603  0.00  0.00    +0.000 A 
ATOM     20  C   UNL     1     -27.952 -14.930  13.939  0.00  0.00    +0.000 A 
ATOM     21  C   UNL     1     -28.901 -14.793  14.957  0.00  0.00    +0.005 A 
ENDBRANCH  15  16
ENDBRANCH   3  15
BRANCH   3  22
ATOM     22  C   UNL     1     -31.151 -11.787  15.610  0.00  0.00    +0.122 C 
BRANCH  22  23
ATOM     23  C   UNL     1     -32.595 -11.267  15.433  0.00  0.00    +0.112 C 
ATOM     24  C   UNL     1     -33.116 -11.487  14.007  0.00  0.00    +0.021 C 
BRANCH  23  25
ATOM     25  C   UNL     1     -32.658  -9.802  15.771  0.00  0.00    +0.309 C 
ATOM     26  O   UNL     1     -33.689  -9.134  15.491  0.00  0.00    -0.251 OA
BRANCH  25  27
ATOM     27  O   UNL     1     -31.585  -9.185  16.409  0.00  0.00    -0.480 OA
ATOM     28  H   UNL     1     -31.465  -9.261  17.412  0.00  0.00    +0.295 HD
ENDBRANCH  25  27
ENDBRANCH  23  25
ENDBRANCH  22  23
ENDBRANCH   3  22
TORSDOF 8
ENDMDL
MODEL 8
REMARK VINA RESULT:    -4.172      3.232      5.846
REMARK INTER + INTRA:          -7.401
REMARK INTER:                  -5.642
REMARK INTRA:                  -1.759
REMARK UNBOUND:                -1.400
REMARK  Name = 
REMARK  10 active torsions:
REMARK  status: ('A' for Active; 'I' for Inactive)
REMARK    1  A    between atoms: C_1  and  C_2
REMARK    2  A    between atoms: N_4  and  C_5
REMARK    3  A    between atoms: C_8  and  C_11
REMARK    4  A    between atoms: N_13  and  C_14
REMARK    5  A    between atoms: N_13  and  C_21
REMARK    6  A    between atoms: C_14  and  C_15
REMARK    7  A    between atoms: C_21  and  C_22
REMARK    8  A    between atoms: C_22  and  C_23
REMARK    9  A    between atoms: C_22  and  C_24
REMARK   10  A    between atoms: C_24  and  O_26
REMARK                            x       y       z     vdW  Elec       q    Type
REMARK                         _______ _______ _______ _____ _____    ______ ____
ROOT
ATOM      1  C   UNL     1     -32.471 -12.023  19.046  0.00  0.00    +0.247 C 
ATOM      2  O   UNL     1     -32.628 -12.434  20.227  0.00  0.00    -0.270 OA
ATOM      3  N   UNL     1     -33.235 -10.893  18.565  0.00  0.00    -0.292 N 
ENDROOT
BRANCH   1   7
ATOM      4  C   UNL     1     -29.700 -14.077  16.501  0.00  0.00    +0.033 A 
ATOM      5  C   UNL     1     -29.251 -13.084  17.385  0.00  0.00    +0.024 A 
ATOM      6  C   UNL     1     -30.152 -12.424  18.226  0.00  0.00    +0.015 A 
ATOM      7  C   UNL     1     -31.517 -12.729  18.175  0.00  0.00    +0.037 A 
ATOM      8  C   UNL     1     -31.972 -13.719  17.295  0.00  0.00    +0.015 A 
ATOM      9  C   UNL     1     -31.073 -14.380  16.453  0.00  0.00    +0.024 A 
BRANCH   4  13
ATOM     10  C   UNL     1     -27.555 -15.062  13.420  0.00  0.00    +0.109 C 
ATOM     11  C   UNL     1     -28.695 -14.504  14.208  0.00  0.00    +0.214 C 
ATOM     12  O   UNL     1     -29.634 -13.922  13.604  0.00  0.00    -0.276 OA
ATOM     13  N   UNL     1     -28.757 -14.719  15.627  0.00  0.00    -0.286 N 
ATOM     14  H   UNL     1     -28.128 -15.449  16.034  0.00  0.00    +0.155 HD
ENDBRANCH   4  13
ENDBRANCH   1   7
BRANCH   3  15
ATOM     15  C   UNL     1     -33.847  -9.974  19.538  0.00  0.00    +0.143 C 
BRANCH  15  16
ATOM     16  C   UNL     1     -32.947  -8.798  19.837  0.00  0.00    -0.030 A 
ATOM     17  C   UNL     1     -31.650  -8.991  20.349  0.00  0.00    +0.005 A 
ATOM     18  C   UNL     1     -30.817  -7.895  20.594  0.00  0.00    +0.000 A 
ATOM     19  C   UNL     1     -31.263  -6.601  20.319  0.00  0.00    +0.000 A 
ATOM     20  C   UNL     1     -32.544  -6.399  19.796  0.00  0.00    +0.000 A 
ATOM     21  C   UNL     1     -33.381  -7.492  19.551  0.00  0.00    +0.005 A 
ENDBRANCH  15  16
ENDBRANCH   3  15
BRANCH   3  22
ATOM     22  C   UNL     1     -33.689 -10.863  17.163  0.00  0.00    +0.122 C 
BRANCH  22  23
ATOM     23  C   UNL     1     -33.156  -9.627  16.406  0.00  0.00    +0.112 C 
ATOM     24  C   UNL     1     -33.930  -9.368  15.107  0.00  0.00    +0.021 C 
BRANCH  23  25
ATOM     25  C   UNL     1     -31.696  -9.807  16.094  0.00  0.00    +0.309 C 
ATOM     26  O   UNL     1     -30.821  -9.292  16.841  0.00  0.00    -0.251 OA
BRANCH  25  27
ATOM     27  O   UNL     1     -31.305 -10.559  14.988  0.00  0.00    -0.480 OA
ATOM     28  H   UNL     1     -31.490 -11.554  14.945  0.00  0.00    +0.295 HD
ENDBRANCH  25  27
ENDBRANCH  23  25
ENDBRANCH  22  23
ENDBRANCH   3  22
TORSDOF 8
ENDMDL
MODEL 9
REMARK VINA RESULT:    -4.139      2.628      5.560
REMARK INTER + INTRA:          -7.354
REMARK INTER:                  -5.628
REMARK INTRA:                  -1.726
REMARK UNBOUND:                -1.400
REMARK  Name = 
REMARK  10 active torsions:
REMARK  status: ('A' for Active; 'I' for Inactive)
REMARK    1  A    between atoms: C_1  and  C_2
REMARK    2  A    between atoms: N_4  and  C_5
REMARK    3  A    between atoms: C_8  and  C_11
REMARK    4  A    between atoms: N_13  and  C_14
REMARK    5  A    between atoms: N_13  and  C_21
REMARK    6  A    between atoms: C_14  and  C_15
REMARK    7  A    between atoms: C_21  and  C_22
REMARK    8  A    between atoms: C_22  and  C_23
REMARK    9  A    between atoms: C_22  and  C_24
REMARK   10  A    between atoms: C_24  and  O_26
REMARK                            x       y       z     vdW  Elec       q    Type
REMARK                         _______ _______ _______ _____ _____    ______ ____
ROOT
ATOM      1  C   UNL     1     -32.651 -11.011  20.451  0.00  0.00    +0.247 C 
ATOM      2  O   UNL     1     -33.543 -11.051  21.340  0.00  0.00    -0.270 OA
ATOM      3  N   UNL     1     -32.898 -10.312  19.210  0.00  0.00    -0.292 N 
ENDROOT
BRANCH   1   7
ATOM      4  C   UNL     1     -28.944 -13.034  21.183  0.00  0.00    +0.033 A 
ATOM      5  C   UNL     1     -29.917 -13.612  20.354  0.00  0.00    +0.024 A 
ATOM      6  C   UNL     1     -31.120 -12.946  20.102  0.00  0.00    +0.015 A 
ATOM      7  C   UNL     1     -31.378 -11.706  20.699  0.00  0.00    +0.037 A 
ATOM      8  C   UNL     1     -30.411 -11.123  21.529  0.00  0.00    +0.015 A 
ATOM      9  C   UNL     1     -29.207 -11.788  21.781  0.00  0.00    +0.024 A 
BRANCH   4  13
ATOM     10  C   UNL     1     -25.313 -14.394  21.016  0.00  0.00    +0.109 C 
ATOM     11  C   UNL     1     -26.599 -13.786  20.561  0.00  0.00    +0.214 C 
ATOM     12  O   UNL     1     -26.704 -13.384  19.372  0.00  0.00    -0.276 OA
ATOM     13  N   UNL     1     -27.728 -13.754  21.449  0.00  0.00    -0.286 N 
ATOM     14  H   UNL     1     -27.690 -14.357  22.303  0.00  0.00    +0.155 HD
ENDBRANCH   4  13
ENDBRANCH   1   7
BRANCH   3  15
ATOM     15  C   UNL     1     -33.972  -9.308  19.153  0.00  0.00    +0.143 C 
BRANCH  15  16
ATOM     16  C   UNL     1     -33.607  -8.057  19.918  0.00  0.00    -0.030 A 
ATOM     17  C   UNL     1     -32.485  -7.288  19.556  0.00  0.00    +0.005 A 
ATOM     18  C   UNL     1     -32.176  -6.117  20.256  0.00  0.00    +0.000 A 
ATOM     19  C   UNL     1     -32.989  -5.696  21.310  0.00  0.00    +0.000 A 
ATOM     20  C   UNL     1     -34.114  -6.444  21.667  0.00  0.00    +0.000 A 
ATOM     21  C   UNL     1     -34.426  -7.616  20.973  0.00  0.00    +0.005 A 
ENDBRANCH  15  16
ENDBRANCH   3  15
BRANCH   3  22
ATOM     22  C   UNL     1     -32.339 -10.839  17.951  0.00  0.00    +0.122 C 
BRANCH  22  23
ATOM     23  C   UNL     1     -31.351  -9.850  17.296  0.00  0.00    +0.112 C 
ATOM     24  C   UNL     1     -31.254 -10.052  15.778  0.00  0.00    +0.021 C 
BRANCH  23  25
ATOM     25  C   UNL     1     -29.987 -10.004  17.911  0.00  0.00    +0.309 C 
ATOM     26  O   UNL     1     -29.612  -9.218  18.822  0.00  0.00    -0.251 OA
BRANCH  25  27
ATOM     27  O   UNL     1     -29.140 -11.027  17.487  0.00  0.00    -0.480 OA
ATOM     28  H   UNL     1     -29.394 -11.998  17.620  0.00  0.00    +0.295 HD
ENDBRANCH  25  27
ENDBRANCH  23  25
ENDBRANCH  22  23
ENDBRANCH   3  22
TORSDOF 8
ENDMDL
