MODEL 1
REMARK VINA RESULT:    -4.282      0.000      0.000
REMARK INTER + INTRA:          -7.029
REMARK INTER:                  -6.035
REMARK INTRA:                  -0.994
REMARK UNBOUND:                -0.994
REMARK  Name = 
REMARK  8 active torsions:
REMARK  status: ('A' for Active; 'I' for Inactive)
REMARK    1  A    between atoms: C_1  and  O_2
REMARK    2  A    between atoms: O_2  and  C_3
REMARK    3  A    between atoms: C_8  and  N_9
REMARK    4  A    between atoms: N_9  and  S_10
REMARK    5  A    between atoms: S_10  and  C_13
REMARK    6  A    between atoms: C_16  and  N_19
REMARK    7  A    between atoms: C_20  and  C_22
REMARK    8  A    between atoms: C_26  and  C_27
REMARK                            x       y       z     vdW  Elec       q    Type
REMARK                         _______ _______ _______ _____ _____    ______ ____
ROOT
ATOM      1  C   UNL     1     -32.581 -11.306  14.490  0.00  0.00    +0.109 A 
ATOM      2  C   UNL     1     -31.312 -11.044  15.021  0.00  0.00    +0.030 A 
ATOM      3  C   UNL     1     -31.162 -10.126  16.064  0.00  0.00    +0.025 A 
ATOM      4  C   UNL     1     -32.279  -9.473  16.604  0.00  0.00    +0.034 A 
ATOM      5  C   UNL     1     -33.550  -9.725  16.055  0.00  0.00    +0.025 A 
ATOM      6  C   UNL     1     -33.699 -10.642  15.012  0.00  0.00    +0.030 A 
ENDROOT
BRANCH   4   7
ATOM      7  N   UNL     1     -32.093  -8.515  17.659  0.00  0.00    -0.282 N 
ATOM      8  C   UNL     1     -32.295  -8.808  19.054  0.00  0.00    +0.248 C 
ATOM      9  O   UNL     1     -32.567  -9.985  19.417  0.00  0.00    -0.270 OA
ATOM     10  H   UNL     1     -31.744  -7.571  17.381  0.00  0.00    +0.155 HD
BRANCH   8  11
ATOM     11  C   UNL     1     -32.185  -7.748  20.086  0.00  0.00    +0.038 A 
ATOM     12  C   UNL     1     -33.338  -7.324  20.773  0.00  0.00    +0.013 A 
ATOM     13  C   UNL     1     -33.256  -6.329  21.752  0.00  0.00    +0.002 A 
ATOM     14  C   UNL     1     -32.023  -5.751  22.062  0.00  0.00    +0.019 A 
ATOM     15  C   UNL     1     -30.865  -6.173  21.399  0.00  0.00    +0.052 A 
ATOM     16  C   UNL     1     -30.945  -7.170  20.417  0.00  0.00    +0.032 A 
BRANCH  15  17
ATOM     17  C   UNL     1     -29.593  -5.589  21.732  0.00  0.00    +0.099 C 
ATOM     18  N   UNL     1     -28.569  -5.120  22.001  0.00  0.00    -0.191 NA
ENDBRANCH  15  17
ENDBRANCH   8  11
ENDBRANCH   4   7
BRANCH   1  19
ATOM     19  S   UNL     1     -32.755 -12.447  13.160  0.00  0.00    +0.072 S 
ATOM     20  O   UNL     1     -34.217 -12.589  12.837  0.00  0.00    -0.150 OA
ATOM     21  O   UNL     1     -32.030 -11.957  11.938  0.00  0.00    -0.150 OA
BRANCH  19  22
ATOM     22  N   UNL     1     -32.115 -13.993  13.618  0.00  0.00    -0.213 N 
ATOM     23  H   UNL     1     -32.802 -14.692  13.981  0.00  0.00    +0.174 HD
BRANCH  22  29
ATOM     24  C   UNL     1     -30.092 -14.640  14.874  0.00  0.00    +0.142 A 
ATOM     25  C   UNL     1     -28.714 -14.934  14.899  0.00  0.00    +0.047 A 
ATOM     26  C   UNL     1     -27.960 -14.890  13.726  0.00  0.00    +0.004 A 
ATOM     27  C   UNL     1     -28.567 -14.557  12.517  0.00  0.00    +0.002 A 
ATOM     28  C   UNL     1     -29.931 -14.266  12.475  0.00  0.00    +0.028 A 
ATOM     29  C   UNL     1     -30.707 -14.296  13.650  0.00  0.00    +0.090 A 
BRANCH  24  31
ATOM     30  C   UNL     1     -30.521 -14.039  17.267  0.00  0.00    +0.277 C 
ATOM     31  O   UNL     1     -30.873 -14.670  16.041  0.00  0.00    -0.493 OA
ENDBRANCH  24  31
ENDBRANCH  22  29
ENDBRANCH  19  22
ENDBRANCH   1  19
TORSDOF 7
ENDMDL
MODEL 2
REMARK VINA RESULT:    -3.012      2.925      8.887
REMARK INTER + INTRA:          -5.239
REMARK INTER:                  -4.173
REMARK INTRA:                  -1.066
REMARK UNBOUND:                -0.994
REMARK  Name = 
REMARK  8 active torsions:
REMARK  status: ('A' for Active; 'I' for Inactive)
REMARK    1  A    between atoms: C_1  and  O_2
REMARK    2  A    between atoms: O_2  and  C_3
REMARK    3  A    between atoms: C_8  and  N_9
REMARK    4  A    between atoms: N_9  and  S_10
REMARK    5  A    between atoms: S_10  and  C_13
REMARK    6  A    between atoms: C_16  and  N_19
REMARK    7  A    between atoms: C_20  and  C_22
REMARK    8  A    between atoms: C_26  and  C_27
REMARK                            x       y       z     vdW  Elec       q    Type
REMARK                         _______ _______ _______ _____ _____    ______ ____
ROOT
ATOM      1  C   UNL     1     -33.310  -8.108  17.911  0.00  0.00    +0.109 A 
ATOM      2  C   UNL     1     -34.162  -8.422  16.844  0.00  0.00    +0.030 A 
ATOM      3  C   UNL     1     -33.757  -9.331  15.864  0.00  0.00    +0.025 A 
ATOM      4  C   UNL     1     -32.503  -9.955  15.947  0.00  0.00    +0.034 A 
ATOM      5  C   UNL     1     -31.643  -9.623  17.009  0.00  0.00    +0.025 A 
ATOM      6  C   UNL     1     -32.049  -8.712  17.988  0.00  0.00    +0.030 A 
ENDROOT
BRANCH   4   7
ATOM      7  N   UNL     1     -32.101 -10.866  14.910  0.00  0.00    -0.282 N 
ATOM      8  C   UNL     1     -32.006 -12.292  15.088  0.00  0.00    +0.248 C 
ATOM      9  O   UNL     1     -32.374 -12.816  16.176  0.00  0.00    -0.270 OA
ATOM     10  H   UNL     1     -31.917 -10.456  13.968  0.00  0.00    +0.155 HD
BRANCH   8  11
ATOM     11  C   UNL     1     -31.487 -13.169  14.011  0.00  0.00    +0.038 A 
ATOM     12  C   UNL     1     -32.356 -13.613  12.997  0.00  0.00    +0.013 A 
ATOM     13  C   UNL     1     -31.887 -14.438  11.971  0.00  0.00    +0.002 A 
ATOM     14  C   UNL     1     -30.544 -14.822  11.938  0.00  0.00    +0.019 A 
ATOM     15  C   UNL     1     -29.664 -14.374  12.929  0.00  0.00    +0.052 A 
ATOM     16  C   UNL     1     -30.133 -13.548  13.961  0.00  0.00    +0.032 A 
BRANCH  15  17
ATOM     17  C   UNL     1     -28.277 -14.756  12.885  0.00  0.00    +0.099 C 
ATOM     18  N   UNL     1     -27.162 -15.062  12.850  0.00  0.00    -0.191 NA
ENDBRANCH  15  17
ENDBRANCH   8  11
ENDBRANCH   4   7
BRANCH   1  19
ATOM     19  S   UNL     1     -33.823  -6.943  19.128  0.00  0.00    +0.072 S 
ATOM     20  O   UNL     1     -32.714  -5.951  19.340  0.00  0.00    -0.150 OA
ATOM     21  O   UNL     1     -35.056  -6.209  18.678  0.00  0.00    -0.150 OA
BRANCH  19  22
ATOM     22  N   UNL     1     -34.160  -7.757  20.622  0.00  0.00    -0.213 N 
ATOM     23  H   UNL     1     -34.894  -7.329  21.230  0.00  0.00    +0.174 HD
BRANCH  22  29
ATOM     24  C   UNL     1     -32.087  -8.681  21.590  0.00  0.00    +0.142 A 
ATOM     25  C   UNL     1     -31.347  -9.784  22.062  0.00  0.00    +0.047 A 
ATOM     26  C   UNL     1     -31.904 -11.063  22.059  0.00  0.00    +0.004 A 
ATOM     27  C   UNL     1     -33.201 -11.260  21.590  0.00  0.00    +0.002 A 
ATOM     28  C   UNL     1     -33.948 -10.178  21.121  0.00  0.00    +0.028 A 
ATOM     29  C   UNL     1     -33.400  -8.880  21.108  0.00  0.00    +0.090 A 
BRANCH  24  31
ATOM     30  C   UNL     1     -30.175  -7.076  21.792  0.00  0.00    +0.277 C 
ATOM     31  O   UNL     1     -31.548  -7.384  21.576  0.00  0.00    -0.493 OA
ENDBRANCH  24  31
ENDBRANCH  22  29
ENDBRANCH  19  22
ENDBRANCH   1  19
TORSDOF 7
ENDMDL
MODEL 3
REMARK VINA RESULT:    -2.773      3.280      8.893
REMARK INTER + INTRA:          -4.902
REMARK INTER:                  -4.812
REMARK INTRA:                  -0.090
REMARK UNBOUND:                -0.994
REMARK  Name = 
REMARK  8 active torsions:
REMARK  status: ('A' for Active; 'I' for Inactive)
REMARK    1  A    between atoms: C_1  and  O_2
REMARK    2  A    between atoms: O_2  and  C_3
REMARK    3  A    between atoms: C_8  and  N_9
REMARK    4  A    between atoms: N_9  and  S_10
REMARK    5  A    between atoms: S_10  and  C_13
REMARK    6  A    between atoms: C_16  and  N_19
REMARK    7  A    between atoms: C_20  and  C_22
REMARK    8  A    between atoms: C_26  and  C_27
REMARK                            x       y       z     vdW  Elec       q    Type
REMARK                         _______ _______ _______ _____ _____    ______ ____
ROOT
ATOM      1  C   UNL     1     -33.198  -7.538  19.165  0.00  0.00    +0.109 A 
ATOM      2  C   UNL     1     -34.309  -7.501  18.312  0.00  0.00    +0.030 A 
ATOM      3  C   UNL     1     -34.364  -8.336  17.193  0.00  0.00    +0.025 A 
ATOM      4  C   UNL     1     -33.321  -9.233  16.921  0.00  0.00    +0.034 A 
ATOM      5  C   UNL     1     -32.199  -9.254  17.769  0.00  0.00    +0.025 A 
ATOM      6  C   UNL     1     -32.144  -8.418  18.888  0.00  0.00    +0.030 A 
ENDROOT
BRANCH   4   7
ATOM      7  N   UNL     1     -33.392 -10.061  15.748  0.00  0.00    -0.282 N 
ATOM      8  C   UNL     1     -32.768 -11.354  15.640  0.00  0.00    +0.248 C 
ATOM      9  O   UNL     1     -32.191 -11.861  16.642  0.00  0.00    -0.270 OA
ATOM     10  H   UNL     1     -33.975  -9.708  14.957  0.00  0.00    +0.155 HD
BRANCH   8  11
ATOM     11  C   UNL     1     -32.792 -12.116  14.368  0.00  0.00    +0.038 A 
ATOM     12  C   UNL     1     -33.929 -12.054  13.542  0.00  0.00    +0.013 A 
ATOM     13  C   UNL     1     -33.971 -12.762  12.337  0.00  0.00    +0.002 A 
ATOM     14  C   UNL     1     -32.877 -13.532  11.938  0.00  0.00    +0.019 A 
ATOM     15  C   UNL     1     -31.732 -13.591  12.740  0.00  0.00    +0.052 A 
ATOM     16  C   UNL     1     -31.688 -12.883  13.950  0.00  0.00    +0.032 A 
BRANCH  15  17
ATOM     17  C   UNL     1     -30.598 -14.371  12.319  0.00  0.00    +0.099 C 
ATOM     18  N   UNL     1     -29.686 -14.998  11.982  0.00  0.00    -0.191 NA
ENDBRANCH  15  17
ENDBRANCH   8  11
ENDBRANCH   4   7
BRANCH   1  19
ATOM     19  S   UNL     1     -33.129  -6.465  20.559  0.00  0.00    +0.072 S 
ATOM     20  O   UNL     1     -32.022  -5.471  20.345  0.00  0.00    -0.150 OA
ATOM     21  O   UNL     1     -34.426  -5.724  20.728  0.00  0.00    -0.150 OA
BRANCH  19  22
ATOM     22  N   UNL     1     -32.808  -7.382  21.997  0.00  0.00    -0.213 N 
ATOM     23  H   UNL     1     -33.145  -6.971  22.896  0.00  0.00    +0.174 HD
BRANCH  22  29
ATOM     24  C   UNL     1     -32.627  -9.843  22.040  0.00  0.00    +0.142 A 
ATOM     25  C   UNL     1     -31.833 -11.007  22.062  0.00  0.00    +0.047 A 
ATOM     26  C   UNL     1     -30.442 -10.915  22.060  0.00  0.00    +0.004 A 
ATOM     27  C   UNL     1     -29.824  -9.666  22.031  0.00  0.00    +0.002 A 
ATOM     28  C   UNL     1     -30.595  -8.504  22.006  0.00  0.00    +0.028 A 
ATOM     29  C   UNL     1     -32.002  -8.576  22.018  0.00  0.00    +0.090 A 
BRANCH  24  31
ATOM     30  C   UNL     1     -34.785 -11.114  22.045  0.00  0.00    +0.277 C 
ATOM     31  O   UNL     1     -34.030  -9.907  22.049  0.00  0.00    -0.493 OA
ENDBRANCH  24  31
ENDBRANCH  22  29
ENDBRANCH  19  22
ENDBRANCH   1  19
TORSDOF 7
ENDMDL
MODEL 4
REMARK VINA RESULT:    -2.766      0.905      2.085
REMARK INTER + INTRA:          -4.892
REMARK INTER:                  -4.821
REMARK INTRA:                  -0.070
REMARK UNBOUND:                -0.994
REMARK  Name = 
REMARK  8 active torsions:
REMARK  status: ('A' for Active; 'I' for Inactive)
REMARK    1  A    between atoms: C_1  and  O_2
REMARK    2  A    between atoms: O_2  and  C_3
REMARK    3  A    between atoms: C_8  and  N_9
REMARK    4  A    between atoms: N_9  and  S_10
REMARK    5  A    between atoms: S_10  and  C_13
REMARK    6  A    between atoms: C_16  and  N_19
REMARK    7  A    between atoms: C_20  and  C_22
REMARK    8  A    between atoms: C_26  and  C_27
REMARK                            x       y       z     vdW  Elec       q    Type
REMARK                         _______ _______ _______ _____ _____    ______ ____
ROOT
ATOM      1  C   UNL     1     -32.724 -11.107  14.641  0.00  0.00    +0.109 A 
ATOM      2  C   UNL     1     -33.786 -10.524  15.345  0.00  0.00    +0.030 A 
ATOM      3  C   UNL     1     -33.532  -9.618  16.378  0.00  0.00    +0.025 A 
ATOM      4  C   UNL     1     -32.215  -9.267  16.709  0.00  0.00    +0.034 A 
ATOM      5  C   UNL     1     -31.151  -9.869  16.012  0.00  0.00    +0.025 A 
ATOM      6  C   UNL     1     -31.406 -10.775  14.980  0.00  0.00    +0.030 A 
ENDROOT
BRANCH   4   7
ATOM      7  N   UNL     1     -31.982  -8.353  17.794  0.00  0.00    -0.282 N 
ATOM      8  C   UNL     1     -32.730  -8.361  19.024  0.00  0.00    +0.248 C 
ATOM      9  O   UNL     1     -33.588  -9.262  19.234  0.00  0.00    -0.270 OA
ATOM     10  H   UNL     1     -31.188  -7.684  17.683  0.00  0.00    +0.155 HD
BRANCH   8  11
ATOM     11  C   UNL     1     -32.510  -7.326  20.065  0.00  0.00    +0.038 A 
ATOM     12  C   UNL     1     -33.604  -6.840  20.803  0.00  0.00    +0.013 A 
ATOM     13  C   UNL     1     -33.418  -5.868  21.790  0.00  0.00    +0.002 A 
ATOM     14  C   UNL     1     -32.139  -5.376  22.058  0.00  0.00    +0.019 A 
ATOM     15  C   UNL     1     -31.038  -5.861  21.343  0.00  0.00    +0.052 A 
ATOM     16  C   UNL     1     -31.222  -6.836  20.352  0.00  0.00    +0.032 A 
BRANCH  15  17
ATOM     17  C   UNL     1     -29.718  -5.366  21.631  0.00  0.00    +0.099 C 
ATOM     18  N   UNL     1     -28.657  -4.968  21.862  0.00  0.00    -0.191 NA
ENDBRANCH  15  17
ENDBRANCH   8  11
ENDBRANCH   4   7
BRANCH   1  19
ATOM     19  S   UNL     1     -33.057 -12.265  13.357  0.00  0.00    +0.072 S 
ATOM     20  O   UNL     1     -34.512 -12.637  13.411  0.00  0.00    -0.150 OA
ATOM     21  O   UNL     1     -32.754 -11.669  12.010  0.00  0.00    -0.150 OA
BRANCH  19  22
ATOM     22  N   UNL     1     -32.090 -13.688  13.578  0.00  0.00    -0.213 N 
ATOM     23  H   UNL     1     -32.181 -14.431  12.849  0.00  0.00    +0.174 HD
BRANCH  22  29
ATOM     24  C   UNL     1     -29.899 -14.082  14.642  0.00  0.00    +0.142 A 
ATOM     25  C   UNL     1     -29.130 -14.330  15.797  0.00  0.00    +0.047 A 
ATOM     26  C   UNL     1     -29.743 -14.433  17.046  0.00  0.00    +0.004 A 
ATOM     27  C   UNL     1     -31.125 -14.287  17.161  0.00  0.00    +0.002 A 
ATOM     28  C   UNL     1     -31.899 -14.038  16.027  0.00  0.00    +0.028 A 
ATOM     29  C   UNL     1     -31.299 -13.940  14.756  0.00  0.00    +0.090 A 
BRANCH  24  31
ATOM     30  C   UNL     1     -28.383 -14.920  12.832  0.00  0.00    +0.277 C 
ATOM     31  O   UNL     1     -29.308 -13.981  13.372  0.00  0.00    -0.493 OA
ENDBRANCH  24  31
ENDBRANCH  22  29
ENDBRANCH  19  22
ENDBRANCH   1  19
TORSDOF 7
ENDMDL
MODEL 5
REMARK VINA RESULT:    -2.303      3.328      8.930
REMARK INTER + INTRA:          -4.240
REMARK INTER:                  -3.670
REMARK INTRA:                  -0.570
REMARK UNBOUND:                -0.994
REMARK  Name = 
REMARK  8 active torsions:
REMARK  status: ('A' for Active; 'I' for Inactive)
REMARK    1  A    between atoms: C_1  and  O_2
REMARK    2  A    between atoms: O_2  and  C_3
REMARK    3  A    between atoms: C_8  and  N_9
REMARK    4  A    between atoms: N_9  and  S_10
REMARK    5  A    between atoms: S_10  and  C_13
REMARK    6  A    between atoms: C_16  and  N_19
REMARK    7  A    between atoms: C_20  and  C_22
REMARK    8  A    between atoms: C_26  and  C_27
REMARK                            x       y       z     vdW  Elec       q    Type
REMARK                         _______ _______ _______ _____ _____    ______ ____
ROOT
ATOM      1  C   UNL     1     -31.016  -8.256  19.364  0.00  0.00    +0.109 A 
ATOM      2  C   UNL     1     -32.199  -8.255  18.614  0.00  0.00    +0.030 A 
ATOM      3  C   UNL     1     -32.312  -9.057  17.476  0.00  0.00    +0.025 A 
ATOM      4  C   UNL     1     -31.251  -9.886  17.082  0.00  0.00    +0.034 A 
ATOM      5  C   UNL     1     -30.058  -9.870  17.826  0.00  0.00    +0.025 A 
ATOM      6  C   UNL     1     -29.946  -9.067  18.964  0.00  0.00    +0.030 A 
ENDROOT
BRANCH   4   7
ATOM      7  N   UNL     1     -31.384 -10.681  15.891  0.00  0.00    -0.282 N 
ATOM      8  C   UNL     1     -32.648 -11.120  15.357  0.00  0.00    +0.248 C 
ATOM      9  O   UNL     1     -33.725 -10.731  15.887  0.00  0.00    -0.270 OA
ATOM     10  H   UNL     1     -30.506 -10.902  15.372  0.00  0.00    +0.155 HD
BRANCH   8  11
ATOM     11  C   UNL     1     -32.713 -12.023  14.182  0.00  0.00    +0.038 A 
ATOM     12  C   UNL     1     -33.897 -12.092  13.424  0.00  0.00    +0.013 A 
ATOM     13  C   UNL     1     -33.979 -12.935  12.312  0.00  0.00    +0.002 A 
ATOM     14  C   UNL     1     -32.880 -13.712  11.938  0.00  0.00    +0.019 A 
ATOM     15  C   UNL     1     -31.691 -13.642  12.672  0.00  0.00    +0.052 A 
ATOM     16  C   UNL     1     -31.606 -12.799  13.789  0.00  0.00    +0.032 A 
BRANCH  15  17
ATOM     17  C   UNL     1     -30.554 -14.430  12.276  0.00  0.00    +0.099 C 
ATOM     18  N   UNL     1     -29.639 -15.062  11.957  0.00  0.00    -0.191 NA
ENDBRANCH  15  17
ENDBRANCH   8  11
ENDBRANCH   4   7
BRANCH   1  19
ATOM     19  S   UNL     1     -30.878  -7.224  20.784  0.00  0.00    +0.072 S 
ATOM     20  O   UNL     1     -29.443  -7.215  21.233  0.00  0.00    -0.150 OA
ATOM     21  O   UNL     1     -31.299  -5.816  20.463  0.00  0.00    -0.150 OA
BRANCH  19  22
ATOM     22  N   UNL     1     -31.876  -7.838  22.062  0.00  0.00    -0.213 N 
ATOM     23  H   UNL     1     -31.865  -7.303  22.960  0.00  0.00    +0.174 HD
BRANCH  22  29
ATOM     24  C   UNL     1     -31.871 -10.305  21.993  0.00  0.00    +0.142 A 
ATOM     25  C   UNL     1     -32.573 -11.525  21.918  0.00  0.00    +0.047 A 
ATOM     26  C   UNL     1     -33.965 -11.536  21.842  0.00  0.00    +0.004 A 
ATOM     27  C   UNL     1     -34.675 -10.337  21.844  0.00  0.00    +0.002 A 
ATOM     28  C   UNL     1     -33.995  -9.120  21.920  0.00  0.00    +0.028 A 
ATOM     29  C   UNL     1     -32.589  -9.088  21.988  0.00  0.00    +0.090 A 
BRANCH  24  31
ATOM     30  C   UNL     1     -29.615 -11.383  21.846  0.00  0.00    +0.277 C 
ATOM     31  O   UNL     1     -30.468 -10.265  22.062  0.00  0.00    -0.493 OA
ENDBRANCH  24  31
ENDBRANCH  22  29
ENDBRANCH  19  22
ENDBRANCH   1  19
TORSDOF 7
ENDMDL
MODEL 6
REMARK VINA RESULT:    -1.554      2.085      3.552
REMARK INTER + INTRA:          -3.183
REMARK INTER:                  -3.500
REMARK INTRA:                   0.316
REMARK UNBOUND:                -0.994
REMARK  Name = 
REMARK  8 active torsions:
REMARK  status: ('A' for Active; 'I' for Inactive)
REMARK    1  A    between atoms: C_1  and  O_2
REMARK    2  A    between atoms: O_2  and  C_3
REMARK    3  A    between atoms: C_8  and  N_9
REMARK    4  A    between atoms: N_9  and  S_10
REMARK    5  A    between atoms: S_10  and  C_13
REMARK    6  A    between atoms: C_16  and  N_19
REMARK    7  A    between atoms: C_20  and  C_22
REMARK    8  A    between atoms: C_26  and  C_27
REMARK                            x       y       z     vdW  Elec       q    Type
REMARK                         _______ _______ _______ _____ _____    ______ ____
ROOT
ATOM      1  C   UNL     1     -30.792 -12.235  15.522  0.00  0.00    +0.109 A 
ATOM      2  C   UNL     1     -31.298 -10.961  15.239  0.00  0.00    +0.030 A 
ATOM      3  C   UNL     1     -31.183  -9.932  16.178  0.00  0.00    +0.025 A 
ATOM      4  C   UNL     1     -30.542 -10.158  17.405  0.00  0.00    +0.034 A 
ATOM      5  C   UNL     1     -30.052 -11.445  17.694  0.00  0.00    +0.025 A 
ATOM      6  C   UNL     1     -30.169 -12.472  16.754  0.00  0.00    +0.030 A 
ENDROOT
BRANCH   4   7
ATOM      7  N   UNL     1     -30.461  -9.090  18.363  0.00  0.00    -0.282 N 
ATOM      8  C   UNL     1     -31.572  -8.643  19.163  0.00  0.00    +0.248 C 
ATOM      9  O   UNL     1     -32.672  -9.258  19.110  0.00  0.00    -0.270 OA
ATOM     10  H   UNL     1     -29.522  -8.657  18.507  0.00  0.00    +0.155 HD
BRANCH   8  11
ATOM     11  C   UNL     1     -31.450  -7.468  20.060  0.00  0.00    +0.038 A 
ATOM     12  C   UNL     1     -32.613  -6.839  20.543  0.00  0.00    +0.013 A 
ATOM     13  C   UNL     1     -32.521  -5.733  21.392  0.00  0.00    +0.002 A 
ATOM     14  C   UNL     1     -31.269  -5.246  21.777  0.00  0.00    +0.019 A 
ATOM     15  C   UNL     1     -30.104  -5.871  21.318  0.00  0.00    +0.052 A 
ATOM     16  C   UNL     1     -30.194  -6.980  20.465  0.00  0.00    +0.032 A 
BRANCH  15  17
ATOM     17  C   UNL     1     -28.815  -5.380  21.729  0.00  0.00    +0.099 C 
ATOM     18  N   UNL     1     -27.779  -4.984  22.059  0.00  0.00    -0.191 NA
ENDBRANCH  15  17
ENDBRANCH   8  11
ENDBRANCH   4   7
BRANCH   1  19
ATOM     19  S   UNL     1     -30.965 -13.529  14.340  0.00  0.00    +0.072 S 
ATOM     20  O   UNL     1     -30.096 -13.215  13.155  0.00  0.00    -0.150 OA
ATOM     21  O   UNL     1     -30.538 -14.847  14.925  0.00  0.00    -0.150 OA
BRANCH  19  22
ATOM     22  N   UNL     1     -32.618 -13.645  13.826  0.00  0.00    -0.213 N 
ATOM     23  H   UNL     1     -32.978 -14.606  13.630  0.00  0.00    +0.174 HD
BRANCH  22  29
ATOM     24  C   UNL     1     -34.096 -11.822  14.588  0.00  0.00    +0.142 A 
ATOM     25  C   UNL     1     -34.905 -10.705  14.297  0.00  0.00    +0.047 A 
ATOM     26  C   UNL     1     -35.062 -10.269  12.982  0.00  0.00    +0.004 A 
ATOM     27  C   UNL     1     -34.415 -10.935  11.943  0.00  0.00    +0.002 A 
ATOM     28  C   UNL     1     -33.608 -12.041  12.214  0.00  0.00    +0.028 A 
ATOM     29  C   UNL     1     -33.445 -12.502  13.535  0.00  0.00    +0.090 A 
BRANCH  24  31
ATOM     30  C   UNL     1     -34.445 -11.643  17.062  0.00  0.00    +0.277 C 
ATOM     31  O   UNL     1     -33.926 -12.287  15.903  0.00  0.00    -0.493 OA
ENDBRANCH  24  31
ENDBRANCH  22  29
ENDBRANCH  19  22
ENDBRANCH   1  19
TORSDOF 7
ENDMDL
