MODEL 1
REMARK VINA RESULT:    -4.620      0.000      0.000
REMARK INTER + INTRA:          -9.038
REMARK INTER:                  -6.376
REMARK INTRA:                  -2.662
REMARK UNBOUND:                -2.662
REMARK  Name = 
REMARK  8 active torsions:
REMARK  status: ('A' for Active; 'I' for Inactive)
REMARK    1  A    between atoms: C_1  and  C_2
REMARK    2  A    between atoms: C_2  and  N_3
REMARK    3  A    between atoms: C_2  and  C_17
REMARK    4  A    between atoms: C_4  and  C_6
REMARK    5  A    between atoms: C_6  and  C_7
REMARK    6  A    between atoms: C_7  and  C_8
REMARK    7  A    between atoms: C_20  and  S_23
REMARK    8  A    between atoms: S_23  and  N_24
REMARK                            x       y       z     vdW  Elec       q    Type
REMARK                         _______ _______ _______ _____ _____    ______ ____
ROOT
ATOM      1  N   UNL     1     -32.775  -8.623  17.363  0.00  0.00    -0.309 N 
ATOM      2  C   UNL     1     -34.138  -8.722  16.928  0.00  0.00    +0.214 C 
ATOM      3  O   UNL     1     -35.062  -8.910  17.766  0.00  0.00    -0.276 OA
ATOM      4  H   UNL     1     -32.038  -8.426  16.647  0.00  0.00    +0.149 HD
ENDROOT
BRANCH   1   6
ATOM      5  C   UNL     1     -32.122  -7.433  19.422  0.00  0.00    +0.033 C 
ATOM      6  C   UNL     1     -32.392  -8.792  18.770  0.00  0.00    +0.100 C 
BRANCH   6   7
ATOM      7  C   UNL     1     -31.169  -9.678  18.882  0.00  0.00    -0.027 A 
ATOM      8  C   UNL     1     -30.259  -9.785  17.816  0.00  0.00    +0.007 A 
ATOM      9  C   UNL     1     -29.124 -10.593  17.934  0.00  0.00    +0.029 A 
ATOM     10  C   UNL     1     -28.883 -11.302  19.117  0.00  0.00    +0.105 A 
ATOM     11  C   UNL     1     -29.776 -11.183  20.189  0.00  0.00    +0.029 A 
ATOM     12  C   UNL     1     -30.911 -10.376  20.073  0.00  0.00    +0.007 A 
BRANCH  10  13
ATOM     13  S   UNL     1     -27.444 -12.306  19.265  0.00  0.00    +0.056 S 
ATOM     14  O   UNL     1     -27.617 -13.561  18.455  0.00  0.00    -0.153 OA
ATOM     15  O   UNL     1     -27.232 -12.685  20.703  0.00  0.00    -0.153 OA
BRANCH  13  16
ATOM     16  N   UNL     1     -26.069 -11.429  18.692  0.00  0.00    -0.204 NA
ATOM     17  H   UNL     1     -25.761 -10.803  19.468  0.00  0.00    +0.144 HD
ATOM     18  H   UNL     1     -25.304 -12.124  18.542  0.00  0.00    +0.144 HD
ENDBRANCH  13  16
ENDBRANCH  10  13
ENDBRANCH   6   7
ENDBRANCH   1   6
BRANCH   2  19
ATOM     19  C   UNL     1     -34.478  -8.554  15.479  0.00  0.00    +0.102 C 
BRANCH  19  20
ATOM     20  C   UNL     1     -34.707  -9.916  14.823  0.00  0.00    +0.072 C 
BRANCH  20  21
ATOM     21  C   UNL     1     -33.620 -10.869  15.205  0.00  0.00    +0.080 A 
ATOM     22  N   UNL     1     -33.635 -11.589  16.354  0.00  0.00    -0.244 NA
ATOM     23  C   UNL     1     -32.562 -12.418  16.421  0.00  0.00    +0.078 A 
ATOM     24  C   UNL     1     -32.297 -13.282  17.484  0.00  0.00    +0.029 A 
ATOM     25  C   UNL     1     -31.151 -14.094  17.425  0.00  0.00    +0.002 A 
ATOM     26  C   UNL     1     -30.291 -14.036  16.309  0.00  0.00    +0.001 A 
ATOM     27  C   UNL     1     -30.570 -13.165  15.244  0.00  0.00    +0.017 A 
ATOM     28  C   UNL     1     -31.709 -12.368  15.329  0.00  0.00    +0.039 A 
ATOM     29  S   UNL     1     -32.295 -11.253  14.221  0.00  0.00    -0.072 S 
ENDBRANCH  20  21
ENDBRANCH  19  20
ENDBRANCH   2  19
TORSDOF 7
ENDMDL
MODEL 2
REMARK VINA RESULT:    -4.554      2.924      5.022
REMARK INTER + INTRA:          -8.946
REMARK INTER:                  -5.984
REMARK INTRA:                  -2.963
REMARK UNBOUND:                -2.662
REMARK  Name = 
REMARK  8 active torsions:
REMARK  status: ('A' for Active; 'I' for Inactive)
REMARK    1  A    between atoms: C_1  and  C_2
REMARK    2  A    between atoms: C_2  and  N_3
REMARK    3  A    between atoms: C_2  and  C_17
REMARK    4  A    between atoms: C_4  and  C_6
REMARK    5  A    between atoms: C_6  and  C_7
REMARK    6  A    between atoms: C_7  and  C_8
REMARK    7  A    between atoms: C_20  and  S_23
REMARK    8  A    between atoms: S_23  and  N_24
REMARK                            x       y       z     vdW  Elec       q    Type
REMARK                         _______ _______ _______ _____ _____    ______ ____
ROOT
ATOM      1  N   UNL     1     -32.069 -13.214  14.245  0.00  0.00    -0.309 N 
ATOM      2  C   UNL     1     -32.262 -12.965  12.846  0.00  0.00    +0.214 C 
ATOM      3  O   UNL     1     -31.297 -12.584  12.128  0.00  0.00    -0.276 OA
ATOM      4  H   UNL     1     -32.880 -13.568  14.803  0.00  0.00    +0.149 HD
ENDROOT
BRANCH   1   6
ATOM      5  C   UNL     1     -30.221 -14.300  15.465  0.00  0.00    +0.033 C 
ATOM      6  C   UNL     1     -30.779 -12.988  14.906  0.00  0.00    +0.100 C 
BRANCH   6   7
ATOM      7  C   UNL     1     -30.925 -11.968  16.015  0.00  0.00    -0.027 A 
ATOM      8  C   UNL     1     -30.964 -10.592  15.726  0.00  0.00    +0.007 A 
ATOM      9  C   UNL     1     -31.115  -9.657  16.754  0.00  0.00    +0.029 A 
ATOM     10  C   UNL     1     -31.231 -10.083  18.083  0.00  0.00    +0.105 A 
ATOM     11  C   UNL     1     -31.211 -11.453  18.375  0.00  0.00    +0.029 A 
ATOM     12  C   UNL     1     -31.060 -12.389  17.348  0.00  0.00    +0.007 A 
BRANCH  10  13
ATOM     13  S   UNL     1     -31.436  -8.902  19.373  0.00  0.00    +0.056 S 
ATOM     14  O   UNL     1     -32.330  -9.468  20.440  0.00  0.00    -0.153 OA
ATOM     15  O   UNL     1     -32.068  -7.654  18.825  0.00  0.00    -0.153 OA
BRANCH  13  16
ATOM     16  N   UNL     1     -29.893  -8.517  20.050  0.00  0.00    -0.204 NA
ATOM     17  H   UNL     1     -29.706  -7.513  19.833  0.00  0.00    +0.144 HD
ATOM     18  H   UNL     1     -29.989  -8.589  21.088  0.00  0.00    +0.144 HD
ENDBRANCH  13  16
ENDBRANCH  10  13
ENDBRANCH   6   7
ENDBRANCH   1   6
BRANCH   2  19
ATOM     19  C   UNL     1     -33.601 -13.200  12.219  0.00  0.00    +0.102 C 
BRANCH  19  20
ATOM     20  C   UNL     1     -34.301 -11.869  11.938  0.00  0.00    +0.072 C 
BRANCH  20  21
ATOM     21  C   UNL     1     -34.534 -11.122  13.212  0.00  0.00    +0.080 A 
ATOM     22  N   UNL     1     -34.519 -11.714  14.432  0.00  0.00    -0.244 NA
ATOM     23  C   UNL     1     -34.698 -10.797  15.417  0.00  0.00    +0.078 A 
ATOM     24  C   UNL     1     -34.733 -11.099  16.779  0.00  0.00    +0.029 A 
ATOM     25  C   UNL     1     -34.919 -10.051  17.698  0.00  0.00    +0.002 A 
ATOM     26  C   UNL     1     -35.062  -8.723  17.248  0.00  0.00    +0.001 A 
ATOM     27  C   UNL     1     -35.021  -8.431  15.876  0.00  0.00    +0.017 A 
ATOM     28  C   UNL     1     -34.840  -9.486  14.986  0.00  0.00    +0.039 A 
ATOM     29  S   UNL     1     -34.742  -9.444  13.312  0.00  0.00    -0.072 S 
ENDBRANCH  20  21
ENDBRANCH  19  20
ENDBRANCH   2  19
TORSDOF 7
ENDMDL
MODEL 3
REMARK VINA RESULT:    -4.488      2.622      4.536
REMARK INTER + INTRA:          -8.856
REMARK INTER:                  -6.009
REMARK INTRA:                  -2.847
REMARK UNBOUND:                -2.662
REMARK  Name = 
REMARK  8 active torsions:
REMARK  status: ('A' for Active; 'I' for Inactive)
REMARK    1  A    between atoms: C_1  and  C_2
REMARK    2  A    between atoms: C_2  and  N_3
REMARK    3  A    between atoms: C_2  and  C_17
REMARK    4  A    between atoms: C_4  and  C_6
REMARK    5  A    between atoms: C_6  and  C_7
REMARK    6  A    between atoms: C_7  and  C_8
REMARK    7  A    between atoms: C_20  and  S_23
REMARK    8  A    between atoms: S_23  and  N_24
REMARK                            x       y       z     vdW  Elec       q    Type
REMARK                         _______ _______ _______ _____ _____    ______ ____
ROOT
ATOM      1  N   UNL     1     -32.014 -13.432  14.317  0.00  0.00    -0.309 N 
ATOM      2  C   UNL     1     -32.441 -12.888  13.060  0.00  0.00    +0.214 C 
ATOM      3  O   UNL     1     -31.599 -12.634  12.156  0.00  0.00    -0.276 OA
ATOM      4  H   UNL     1     -32.742 -13.669  15.029  0.00  0.00    +0.149 HD
ENDROOT
BRANCH   1   6
ATOM      5  C   UNL     1     -30.168 -15.062  14.187  0.00  0.00    +0.033 C 
ATOM      6  C   UNL     1     -30.597 -13.659  14.625  0.00  0.00    +0.100 C 
BRANCH   6   7
ATOM      7  C   UNL     1     -30.342 -13.473  16.106  0.00  0.00    -0.027 A 
ATOM      8  C   UNL     1     -29.119 -12.950  16.564  0.00  0.00    +0.007 A 
ATOM      9  C   UNL     1     -28.897 -12.766  17.932  0.00  0.00    +0.029 A 
ATOM     10  C   UNL     1     -29.892 -13.099  18.859  0.00  0.00    +0.105 A 
ATOM     11  C   UNL     1     -31.119 -13.602  18.407  0.00  0.00    +0.029 A 
ATOM     12  C   UNL     1     -31.343 -13.787  17.039  0.00  0.00    +0.007 A 
BRANCH  10  13
ATOM     13  S   UNL     1     -29.613 -12.851  20.579  0.00  0.00    +0.056 S 
ATOM     14  O   UNL     1     -30.901 -12.459  21.250  0.00  0.00    -0.153 OA
ATOM     15  O   UNL     1     -28.611 -11.750  20.780  0.00  0.00    -0.153 OA
BRANCH  13  16
ATOM     16  N   UNL     1     -29.012 -14.312  21.281  0.00  0.00    -0.204 NA
ATOM     17  H   UNL     1     -28.073 -14.489  20.862  0.00  0.00    +0.144 HD
ATOM     18  H   UNL     1     -28.860 -14.123  22.297  0.00  0.00    +0.144 HD
ENDBRANCH  13  16
ENDBRANCH  10  13
ENDBRANCH   6   7
ENDBRANCH   1   6
BRANCH   2  19
ATOM     19  C   UNL     1     -33.898 -12.663  12.796  0.00  0.00    +0.102 C 
BRANCH  19  20
ATOM     20  C   UNL     1     -34.313 -11.262  13.247  0.00  0.00    +0.072 C 
BRANCH  20  21
ATOM     21  C   UNL     1     -33.760 -10.965  14.604  0.00  0.00    +0.080 A 
ATOM     22  N   UNL     1     -32.545 -10.397  14.802  0.00  0.00    -0.244 NA
ATOM     23  C   UNL     1     -32.319 -10.184  16.124  0.00  0.00    +0.078 A 
ATOM     24  C   UNL     1     -31.155  -9.616  16.644  0.00  0.00    +0.029 A 
ATOM     25  C   UNL     1     -31.052  -9.444  18.035  0.00  0.00    +0.002 A 
ATOM     26  C   UNL     1     -32.107  -9.834  18.884  0.00  0.00    +0.001 A 
ATOM     27  C   UNL     1     -33.275 -10.401  18.349  0.00  0.00    +0.017 A 
ATOM     28  C   UNL     1     -33.351 -10.565  16.968  0.00  0.00    +0.039 A 
ATOM     29  S   UNL     1     -34.607 -11.196  16.053  0.00  0.00    -0.072 S 
ENDBRANCH  20  21
ENDBRANCH  19  20
ENDBRANCH   2  19
TORSDOF 7
ENDMDL
MODEL 4
REMARK VINA RESULT:    -4.115      2.841      5.534
REMARK INTER + INTRA:          -8.341
REMARK INTER:                  -5.795
REMARK INTRA:                  -2.546
REMARK UNBOUND:                -2.662
REMARK  Name = 
REMARK  8 active torsions:
REMARK  status: ('A' for Active; 'I' for Inactive)
REMARK    1  A    between atoms: C_1  and  C_2
REMARK    2  A    between atoms: C_2  and  N_3
REMARK    3  A    between atoms: C_2  and  C_17
REMARK    4  A    between atoms: C_4  and  C_6
REMARK    5  A    between atoms: C_6  and  C_7
REMARK    6  A    between atoms: C_7  and  C_8
REMARK    7  A    between atoms: C_20  and  S_23
REMARK    8  A    between atoms: S_23  and  N_24
REMARK                            x       y       z     vdW  Elec       q    Type
REMARK                         _______ _______ _______ _____ _____    ______ ____
ROOT
ATOM      1  N   UNL     1     -31.787 -10.333  19.063  0.00  0.00    -0.309 N 
ATOM      2  C   UNL     1     -30.567  -9.899  19.679  0.00  0.00    +0.214 C 
ATOM      3  O   UNL     1     -30.128  -8.733  19.473  0.00  0.00    -0.276 OA
ATOM      4  H   UNL     1     -32.144 -11.290  19.288  0.00  0.00    +0.149 HD
ENDROOT
BRANCH   1   6
ATOM      5  C   UNL     1     -33.895  -9.096  18.733  0.00  0.00    +0.033 C 
ATOM      6  C   UNL     1     -32.538  -9.479  18.135  0.00  0.00    +0.100 C 
BRANCH   6   7
ATOM      7  C   UNL     1     -32.730 -10.182  16.808  0.00  0.00    -0.027 A 
ATOM      8  C   UNL     1     -33.976 -10.736  16.462  0.00  0.00    +0.007 A 
ATOM      9  C   UNL     1     -34.150 -11.370  15.228  0.00  0.00    +0.029 A 
ATOM     10  C   UNL     1     -33.084 -11.457  14.324  0.00  0.00    +0.105 A 
ATOM     11  C   UNL     1     -31.847 -10.891  14.656  0.00  0.00    +0.029 A 
ATOM     12  C   UNL     1     -31.671 -10.256  15.889  0.00  0.00    +0.007 A 
BRANCH  10  13
ATOM     13  S   UNL     1     -33.313 -12.243  12.765  0.00  0.00    +0.056 S 
ATOM     14  O   UNL     1     -33.598 -13.705  12.973  0.00  0.00    -0.153 OA
ATOM     15  O   UNL     1     -32.067 -12.107  11.938  0.00  0.00    -0.153 OA
BRANCH  13  16
ATOM     16  N   UNL     1     -34.638 -11.504  11.938  0.00  0.00    -0.204 NA
ATOM     17  H   UNL     1     -34.541 -11.747  10.927  0.00  0.00    +0.144 HD
ATOM     18  H   UNL     1     -35.509 -11.970  12.278  0.00  0.00    +0.144 HD
ENDBRANCH  13  16
ENDBRANCH  10  13
ENDBRANCH   6   7
ENDBRANCH   1   6
BRANCH   2  19
ATOM     19  C   UNL     1     -29.830 -10.810  20.611  0.00  0.00    +0.102 C 
BRANCH  19  20
ATOM     20  C   UNL     1     -30.422 -12.219  20.560  0.00  0.00    +0.072 C 
BRANCH  20  21
ATOM     21  C   UNL     1     -30.200 -12.831  19.214  0.00  0.00    +0.080 A 
ATOM     22  N   UNL     1     -31.208 -13.293  18.434  0.00  0.00    -0.244 NA
ATOM     23  C   UNL     1     -30.734 -13.740  17.243  0.00  0.00    +0.078 A 
ATOM     24  C   UNL     1     -31.528 -14.278  16.229  0.00  0.00    +0.029 A 
ATOM     25  C   UNL     1     -30.910 -14.697  15.038  0.00  0.00    +0.002 A 
ATOM     26  C   UNL     1     -29.516 -14.570  14.874  0.00  0.00    +0.001 A 
ATOM     27  C   UNL     1     -28.728 -14.024  15.900  0.00  0.00    +0.017 A 
ATOM     28  C   UNL     1     -29.363 -13.620  17.071  0.00  0.00    +0.039 A 
ATOM     29  S   UNL     1     -28.693 -12.932  18.446  0.00  0.00    -0.072 S 
ENDBRANCH  20  21
ENDBRANCH  19  20
ENDBRANCH   2  19
TORSDOF 7
ENDMDL
MODEL 5
REMARK VINA RESULT:    -4.092      1.918      2.448
REMARK INTER + INTRA:          -8.308
REMARK INTER:                  -7.254
REMARK INTRA:                  -1.055
REMARK UNBOUND:                -2.662
REMARK  Name = 
REMARK  8 active torsions:
REMARK  status: ('A' for Active; 'I' for Inactive)
REMARK    1  A    between atoms: C_1  and  C_2
REMARK    2  A    between atoms: C_2  and  N_3
REMARK    3  A    between atoms: C_2  and  C_17
REMARK    4  A    between atoms: C_4  and  C_6
REMARK    5  A    between atoms: C_6  and  C_7
REMARK    6  A    between atoms: C_7  and  C_8
REMARK    7  A    between atoms: C_20  and  S_23
REMARK    8  A    between atoms: S_23  and  N_24
REMARK                            x       y       z     vdW  Elec       q    Type
REMARK                         _______ _______ _______ _____ _____    ______ ____
ROOT
ATOM      1  N   UNL     1     -32.883  -8.352  18.837  0.00  0.00    -0.309 N 
ATOM      2  C   UNL     1     -33.967  -9.267  18.630  0.00  0.00    +0.214 C 
ATOM      3  O   UNL     1     -34.260 -10.120  19.513  0.00  0.00    -0.276 OA
ATOM      4  H   UNL     1     -32.694  -7.632  18.103  0.00  0.00    +0.149 HD
ENDROOT
BRANCH   1   6
ATOM      5  C   UNL     1     -31.454  -7.020  20.341  0.00  0.00    +0.033 C 
ATOM      6  C   UNL     1     -32.041  -8.401  20.038  0.00  0.00    +0.100 C 
BRANCH   6   7
ATOM      7  C   UNL     1     -30.931  -9.415  19.864  0.00  0.00    -0.027 A 
ATOM      8  C   UNL     1     -30.307  -9.592  18.616  0.00  0.00    +0.007 A 
ATOM      9  C   UNL     1     -29.272 -10.519  18.468  0.00  0.00    +0.029 A 
ATOM     10  C   UNL     1     -28.845 -11.280  19.563  0.00  0.00    +0.105 A 
ATOM     11  C   UNL     1     -29.449 -11.095  20.813  0.00  0.00    +0.029 A 
ATOM     12  C   UNL     1     -30.485 -10.168  20.963  0.00  0.00    +0.007 A 
BRANCH  10  13
ATOM     13  S   UNL     1     -27.530 -12.436  19.373  0.00  0.00    +0.056 S 
ATOM     14  O   UNL     1     -27.248 -13.102  20.691  0.00  0.00    -0.153 OA
ATOM     15  O   UNL     1     -26.287 -11.725  18.917  0.00  0.00    -0.153 OA
BRANCH  13  16
ATOM     16  N   UNL     1     -27.976 -13.627  18.203  0.00  0.00    -0.204 NA
ATOM     17  H   UNL     1     -27.199 -13.677  17.507  0.00  0.00    +0.144 HD
ATOM     18  H   UNL     1     -27.999 -14.547  18.697  0.00  0.00    +0.144 HD
ENDBRANCH  13  16
ENDBRANCH  10  13
ENDBRANCH   6   7
ENDBRANCH   1   6
BRANCH   2  19
ATOM     19  C   UNL     1     -34.791  -9.186  17.382  0.00  0.00    +0.102 C 
BRANCH  19  20
ATOM     20  C   UNL     1     -33.936  -8.714  16.206  0.00  0.00    +0.072 C 
BRANCH  20  21
ATOM     21  C   UNL     1     -33.556  -9.871  15.338  0.00  0.00    +0.080 A 
ATOM     22  N   UNL     1     -34.342 -10.335  14.336  0.00  0.00    -0.244 NA
ATOM     23  C   UNL     1     -33.731 -11.350  13.671  0.00  0.00    +0.078 A 
ATOM     24  C   UNL     1     -34.290 -12.035  12.592  0.00  0.00    +0.029 A 
ATOM     25  C   UNL     1     -33.546 -13.063  11.987  0.00  0.00    +0.002 A 
ATOM     26  C   UNL     1     -32.260 -13.389  12.463  0.00  0.00    +0.001 A 
ATOM     27  C   UNL     1     -31.707 -12.690  13.547  0.00  0.00    +0.017 A 
ATOM     28  C   UNL     1     -32.465 -11.679  14.131  0.00  0.00    +0.039 A 
ATOM     29  S   UNL     1     -32.069 -10.679  15.418  0.00  0.00    -0.072 S 
ENDBRANCH  20  21
ENDBRANCH  19  20
ENDBRANCH   2  19
TORSDOF 7
ENDMDL
MODEL 6
REMARK VINA RESULT:    -4.086      1.652      2.058
REMARK INTER + INTRA:          -8.301
REMARK INTER:                  -5.840
REMARK INTRA:                  -2.461
REMARK UNBOUND:                -2.662
REMARK  Name = 
REMARK  8 active torsions:
REMARK  status: ('A' for Active; 'I' for Inactive)
REMARK    1  A    between atoms: C_1  and  C_2
REMARK    2  A    between atoms: C_2  and  N_3
REMARK    3  A    between atoms: C_2  and  C_17
REMARK    4  A    between atoms: C_4  and  C_6
REMARK    5  A    between atoms: C_6  and  C_7
REMARK    6  A    between atoms: C_7  and  C_8
REMARK    7  A    between atoms: C_20  and  S_23
REMARK    8  A    between atoms: S_23  and  N_24
REMARK                            x       y       z     vdW  Elec       q    Type
REMARK                         _______ _______ _______ _____ _____    ______ ____
ROOT
ATOM      1  N   UNL     1     -32.282  -7.795  19.676  0.00  0.00    -0.309 N 
ATOM      2  C   UNL     1     -33.674  -8.099  19.510  0.00  0.00    +0.214 C 
ATOM      3  O   UNL     1     -34.286  -8.779  20.379  0.00  0.00    -0.276 OA
ATOM      4  H   UNL     1     -31.816  -7.195  18.957  0.00  0.00    +0.149 HD
ENDROOT
BRANCH   1   6
ATOM      5  C   UNL     1     -30.661  -7.180  21.429  0.00  0.00    +0.033 C 
ATOM      6  C   UNL     1     -31.505  -8.299  20.814  0.00  0.00    +0.100 C 
BRANCH   6   7
ATOM      7  C   UNL     1     -30.617  -9.446  20.381  0.00  0.00    -0.027 A 
ATOM      8  C   UNL     1     -30.173  -9.549  19.050  0.00  0.00    +0.007 A 
ATOM      9  C   UNL     1     -29.341 -10.602  18.661  0.00  0.00    +0.029 A 
ATOM     10  C   UNL     1     -28.939 -11.565  19.595  0.00  0.00    +0.105 A 
ATOM     11  C   UNL     1     -29.362 -11.457  20.926  0.00  0.00    +0.029 A 
ATOM     12  C   UNL     1     -30.195 -10.404  21.317  0.00  0.00    +0.007 A 
BRANCH  10  13
ATOM     13  S   UNL     1     -27.877 -12.881  19.103  0.00  0.00    +0.056 S 
ATOM     14  O   UNL     1     -26.454 -12.537  19.443  0.00  0.00    -0.153 OA
ATOM     15  O   UNL     1     -27.981 -13.092  17.619  0.00  0.00    -0.153 OA
BRANCH  13  16
ATOM     16  N   UNL     1     -28.339 -14.329  19.926  0.00  0.00    -0.204 NA
ATOM     17  H   UNL     1     -28.518 -14.071  20.921  0.00  0.00    +0.144 HD
ATOM     18  H   UNL     1     -29.254 -14.630  19.522  0.00  0.00    +0.144 HD
ENDBRANCH  13  16
ENDBRANCH  10  13
ENDBRANCH   6   7
ENDBRANCH   1   6
BRANCH   2  19
ATOM     19  C   UNL     1     -34.423  -7.571  18.325  0.00  0.00    +0.102 C 
BRANCH  19  20
ATOM     20  C   UNL     1     -35.062  -8.718  17.542  0.00  0.00    +0.072 C 
BRANCH  20  21
ATOM     21  C   UNL     1     -34.034  -9.743  17.184  0.00  0.00    +0.080 A 
ATOM     22  N   UNL     1     -33.814 -10.861  17.920  0.00  0.00    -0.244 NA
ATOM     23  C   UNL     1     -32.872 -11.647  17.337  0.00  0.00    +0.078 A 
ATOM     24  C   UNL     1     -32.427 -12.863  17.858  0.00  0.00    +0.029 A 
ATOM     25  C   UNL     1     -31.449 -13.583  17.150  0.00  0.00    +0.002 A 
ATOM     26  C   UNL     1     -30.934 -13.084  15.936  0.00  0.00    +0.001 A 
ATOM     27  C   UNL     1     -31.392 -11.861  15.421  0.00  0.00    +0.017 A 
ATOM     28  C   UNL     1     -32.358 -11.165  16.143  0.00  0.00    +0.039 A 
ATOM     29  S   UNL     1     -33.092  -9.702  15.777  0.00  0.00    -0.072 S 
ENDBRANCH  20  21
ENDBRANCH  19  20
ENDBRANCH   2  19
TORSDOF 7
ENDMDL
MODEL 7
REMARK VINA RESULT:    -4.051      2.969      5.047
REMARK INTER + INTRA:          -8.253
REMARK INTER:                  -5.550
REMARK INTRA:                  -2.703
REMARK UNBOUND:                -2.662
REMARK  Name = 
REMARK  8 active torsions:
REMARK  status: ('A' for Active; 'I' for Inactive)
REMARK    1  A    between atoms: C_1  and  C_2
REMARK    2  A    between atoms: C_2  and  N_3
REMARK    3  A    between atoms: C_2  and  C_17
REMARK    4  A    between atoms: C_4  and  C_6
REMARK    5  A    between atoms: C_6  and  C_7
REMARK    6  A    between atoms: C_7  and  C_8
REMARK    7  A    between atoms: C_20  and  S_23
REMARK    8  A    between atoms: S_23  and  N_24
REMARK                            x       y       z     vdW  Elec       q    Type
REMARK                         _______ _______ _______ _____ _____    ______ ____
ROOT
ATOM      1  N   UNL     1     -31.373 -12.180  15.101  0.00  0.00    -0.309 N 
ATOM      2  C   UNL     1     -31.434 -13.246  14.143  0.00  0.00    +0.214 C 
ATOM      3  O   UNL     1     -32.533 -13.560  13.607  0.00  0.00    -0.276 OA
ATOM      4  H   UNL     1     -30.441 -11.919  15.495  0.00  0.00    +0.149 HD
ENDROOT
BRANCH   1   6
ATOM      5  C   UNL     1     -33.039 -10.481  14.453  0.00  0.00    +0.033 C 
ATOM      6  C   UNL     1     -32.573 -11.456  15.538  0.00  0.00    +0.100 C 
BRANCH   6   7
ATOM      7  C   UNL     1     -32.301 -10.712  16.828  0.00  0.00    -0.027 A 
ATOM      8  C   UNL     1     -33.136 -10.883  17.947  0.00  0.00    +0.007 A 
ATOM      9  C   UNL     1     -32.869 -10.205  19.139  0.00  0.00    +0.029 A 
ATOM     10  C   UNL     1     -31.764  -9.349  19.232  0.00  0.00    +0.105 A 
ATOM     11  C   UNL     1     -30.918  -9.190  18.127  0.00  0.00    +0.029 A 
ATOM     12  C   UNL     1     -31.184  -9.867  16.933  0.00  0.00    +0.007 A 
BRANCH  10  13
ATOM     13  S   UNL     1     -31.424  -8.509  20.741  0.00  0.00    +0.056 S 
ATOM     14  O   UNL     1     -31.282  -9.508  21.856  0.00  0.00    -0.153 OA
ATOM     15  O   UNL     1     -32.554  -7.575  21.071  0.00  0.00    -0.153 OA
BRANCH  13  16
ATOM     16  N   UNL     1     -29.959  -7.606  20.578  0.00  0.00    -0.204 NA
ATOM     17  H   UNL     1     -30.180  -6.766  20.001  0.00  0.00    +0.144 HD
ATOM     18  H   UNL     1     -29.707  -7.261  21.531  0.00  0.00    +0.144 HD
ENDBRANCH  13  16
ENDBRANCH  10  13
ENDBRANCH   6   7
ENDBRANCH   1   6
BRANCH   2  19
ATOM     19  C   UNL     1     -30.184 -13.963  13.737  0.00  0.00    +0.102 C 
BRANCH  19  20
ATOM     20  C   UNL     1     -29.808 -15.015  14.781  0.00  0.00    +0.072 C 
BRANCH  20  21
ATOM     21  C   UNL     1     -29.748 -14.400  16.143  0.00  0.00    +0.080 A 
ATOM     22  N   UNL     1     -28.820 -13.479  16.501  0.00  0.00    -0.244 NA
ATOM     23  C   UNL     1     -29.032 -13.045  17.770  0.00  0.00    +0.078 A 
ATOM     24  C   UNL     1     -28.241 -12.098  18.422  0.00  0.00    +0.029 A 
ATOM     25  C   UNL     1     -28.575 -11.730  19.738  0.00  0.00    +0.002 A 
ATOM     26  C   UNL     1     -29.691 -12.307  20.379  0.00  0.00    +0.001 A 
ATOM     27  C   UNL     1     -30.481 -13.256  19.711  0.00  0.00    +0.017 A 
ATOM     28  C   UNL     1     -30.127 -13.605  18.411  0.00  0.00    +0.039 A 
ATOM     29  S   UNL     1     -30.877 -14.689  17.373  0.00  0.00    -0.072 S 
ENDBRANCH  20  21
ENDBRANCH  19  20
ENDBRANCH   2  19
TORSDOF 7
ENDMDL
MODEL 8
REMARK VINA RESULT:    -4.008      2.056      3.938
REMARK INTER + INTRA:          -8.193
REMARK INTER:                  -5.630
REMARK INTRA:                  -2.563
REMARK UNBOUND:                -2.662
REMARK  Name = 
REMARK  8 active torsions:
REMARK  status: ('A' for Active; 'I' for Inactive)
REMARK    1  A    between atoms: C_1  and  C_2
REMARK    2  A    between atoms: C_2  and  N_3
REMARK    3  A    between atoms: C_2  and  C_17
REMARK    4  A    between atoms: C_4  and  C_6
REMARK    5  A    between atoms: C_6  and  C_7
REMARK    6  A    between atoms: C_7  and  C_8
REMARK    7  A    between atoms: C_20  and  S_23
REMARK    8  A    between atoms: S_23  and  N_24
REMARK                            x       y       z     vdW  Elec       q    Type
REMARK                         _______ _______ _______ _____ _____    ______ ____
ROOT
ATOM      1  N   UNL     1     -33.010 -11.624  15.643  0.00  0.00    -0.309 N 
ATOM      2  C   UNL     1     -33.730 -10.390  15.510  0.00  0.00    +0.214 C 
ATOM      3  O   UNL     1     -33.265  -9.455  14.801  0.00  0.00    -0.276 OA
ATOM      4  H   UNL     1     -33.443 -12.393  16.204  0.00  0.00    +0.149 HD
ENDROOT
BRANCH   1   6
ATOM      5  C   UNL     1     -31.718 -13.065  14.116  0.00  0.00    +0.033 C 
ATOM      6  C   UNL     1     -31.697 -11.831  15.022  0.00  0.00    +0.100 C 
BRANCH   6   7
ATOM      7  C   UNL     1     -30.628 -11.979  16.083  0.00  0.00    -0.027 A 
ATOM      8  C   UNL     1     -30.183 -10.864  16.816  0.00  0.00    +0.007 A 
ATOM      9  C   UNL     1     -29.206 -11.012  17.805  0.00  0.00    +0.029 A 
ATOM     10  C   UNL     1     -28.663 -12.274  18.077  0.00  0.00    +0.105 A 
ATOM     11  C   UNL     1     -29.115 -13.391  17.363  0.00  0.00    +0.029 A 
ATOM     12  C   UNL     1     -30.092 -13.245  16.373  0.00  0.00    +0.007 A 
BRANCH  10  13
ATOM     13  S   UNL     1     -27.444 -12.457  19.334  0.00  0.00    +0.056 S 
ATOM     14  O   UNL     1     -27.985 -11.947  20.641  0.00  0.00    -0.153 OA
ATOM     15  O   UNL     1     -26.219 -11.662  18.977  0.00  0.00    -0.153 OA
BRANCH  13  16
ATOM     16  N   UNL     1     -27.023 -14.126  19.488  0.00  0.00    -0.204 NA
ATOM     17  H   UNL     1     -27.876 -14.679  19.252  0.00  0.00    +0.144 HD
ATOM     18  H   UNL     1     -26.315 -14.332  18.748  0.00  0.00    +0.144 HD
ENDBRANCH  13  16
ENDBRANCH  10  13
ENDBRANCH   6   7
ENDBRANCH   1   6
BRANCH   2  19
ATOM     19  C   UNL     1     -35.062 -10.222  16.172  0.00  0.00    +0.102 C 
BRANCH  19  20
ATOM     20  C   UNL     1     -34.991  -9.135  17.245  0.00  0.00    +0.072 C 
BRANCH  20  21
ATOM     21  C   UNL     1     -34.013  -9.514  18.310  0.00  0.00    +0.080 A 
ATOM     22  N   UNL     1     -33.713 -10.800  18.618  0.00  0.00    -0.244 NA
ATOM     23  C   UNL     1     -32.753 -10.858  19.576  0.00  0.00    +0.078 A 
ATOM     24  C   UNL     1     -32.236 -12.042  20.104  0.00  0.00    +0.029 A 
ATOM     25  C   UNL     1     -31.237 -11.962  21.090  0.00  0.00    +0.002 A 
ATOM     26  C   UNL     1     -30.766 -10.707  21.530  0.00  0.00    +0.001 A 
ATOM     27  C   UNL     1     -31.292  -9.524  20.988  0.00  0.00    +0.017 A 
ATOM     28  C   UNL     1     -32.283  -9.630  20.016  0.00  0.00    +0.039 A 
ATOM     29  S   UNL     1     -33.082  -8.407  19.192  0.00  0.00    -0.072 S 
ENDBRANCH  20  21
ENDBRANCH  19  20
ENDBRANCH   2  19
TORSDOF 7
ENDMDL
MODEL 9
REMARK VINA RESULT:    -3.999      2.533      5.157
REMARK INTER + INTRA:          -8.180
REMARK INTER:                  -5.344
REMARK INTRA:                  -2.837
REMARK UNBOUND:                -2.662
REMARK  Name = 
REMARK  8 active torsions:
REMARK  status: ('A' for Active; 'I' for Inactive)
REMARK    1  A    between atoms: C_1  and  C_2
REMARK    2  A    between atoms: C_2  and  N_3
REMARK    3  A    between atoms: C_2  and  C_17
REMARK    4  A    between atoms: C_4  and  C_6
REMARK    5  A    between atoms: C_6  and  C_7
REMARK    6  A    between atoms: C_7  and  C_8
REMARK    7  A    between atoms: C_20  and  S_23
REMARK    8  A    between atoms: S_23  and  N_24
REMARK                            x       y       z     vdW  Elec       q    Type
REMARK                         _______ _______ _______ _____ _____    ______ ____
ROOT
ATOM      1  N   UNL     1     -29.519 -13.873  18.179  0.00  0.00    -0.309 N 
ATOM      2  C   UNL     1     -29.237 -14.138  16.798  0.00  0.00    +0.214 C 
ATOM      3  O   UNL     1     -28.154 -13.747  16.281  0.00  0.00    -0.276 OA
ATOM      4  H   UNL     1     -30.407 -14.247  18.585  0.00  0.00    +0.149 HD
ENDROOT
BRANCH   1   6
ATOM      5  C   UNL     1     -28.243 -13.885  20.289  0.00  0.00    +0.033 C 
ATOM      6  C   UNL     1     -28.604 -13.099  19.026  0.00  0.00    +0.100 C 
BRANCH   6   7
ATOM      7  C   UNL     1     -29.225 -11.769  19.396  0.00  0.00    -0.027 A 
ATOM      8  C   UNL     1     -29.654 -11.518  20.712  0.00  0.00    +0.007 A 
ATOM      9  C   UNL     1     -30.212 -10.281  21.049  0.00  0.00    +0.029 A 
ATOM     10  C   UNL     1     -30.346  -9.280  20.081  0.00  0.00    +0.105 A 
ATOM     11  C   UNL     1     -29.903  -9.517  18.773  0.00  0.00    +0.029 A 
ATOM     12  C   UNL     1     -29.344 -10.753  18.433  0.00  0.00    +0.007 A 
BRANCH  10  13
ATOM     13  S   UNL     1     -31.035  -7.719  20.515  0.00  0.00    +0.056 S 
ATOM     14  O   UNL     1     -31.964  -7.884  21.686  0.00  0.00    -0.153 OA
ATOM     15  O   UNL     1     -31.815  -7.165  19.356  0.00  0.00    -0.153 OA
BRANCH  13  16
ATOM     16  N   UNL     1     -29.764  -6.625  20.931  0.00  0.00    -0.204 NA
ATOM     17  H   UNL     1     -29.182  -7.095  21.659  0.00  0.00    +0.144 HD
ATOM     18  H   UNL     1     -29.162  -6.521  20.083  0.00  0.00    +0.144 HD
ENDBRANCH  13  16
ENDBRANCH  10  13
ENDBRANCH   6   7
ENDBRANCH   1   6
BRANCH   2  19
ATOM     19  C   UNL     1     -30.208 -14.923  15.970  0.00  0.00    +0.102 C 
BRANCH  19  20
ATOM     20  C   UNL     1     -30.829 -14.037  14.890  0.00  0.00    +0.072 C 
BRANCH  20  21
ATOM     21  C   UNL     1     -31.564 -12.893  15.512  0.00  0.00    +0.080 A 
ATOM     22  N   UNL     1     -32.083 -12.937  16.763  0.00  0.00    -0.244 NA
ATOM     23  C   UNL     1     -32.643 -11.746  17.099  0.00  0.00    +0.078 A 
ATOM     24  C   UNL     1     -33.261 -11.481  18.321  0.00  0.00    +0.029 A 
ATOM     25  C   UNL     1     -33.796 -10.201  18.544  0.00  0.00    +0.002 A 
ATOM     26  C   UNL     1     -33.703  -9.205  17.550  0.00  0.00    +0.001 A 
ATOM     27  C   UNL     1     -33.075  -9.483  16.325  0.00  0.00    +0.017 A 
ATOM     28  C   UNL     1     -32.557 -10.760  16.128  0.00  0.00    +0.039 A 
ATOM     29  S   UNL     1     -31.755 -11.373  14.788  0.00  0.00    -0.072 S 
ENDBRANCH  20  21
ENDBRANCH  19  20
ENDBRANCH   2  19
TORSDOF 7
ENDMDL
