MODEL 1
REMARK VINA RESULT:    -5.748      0.000      0.000
REMARK INTER + INTRA:         -11.312
REMARK INTER:                  -8.437
REMARK INTRA:                  -2.876
REMARK UNBOUND:                -2.876
REMARK  Name = 
REMARK  9 active torsions:
REMARK  status: ('A' for Active; 'I' for Inactive)
REMARK    1  A    between atoms: C_2  and  OXT_3
REMARK    2  A    between atoms: C_2  and  CA_4
REMARK    3  A    between atoms: CA_4  and  CB_5
REMARK    4  A    between atoms: CA_4  and  N_13
REMARK    5  A    between atoms: CB_5  and  CG_6
REMARK    6  A    between atoms: CZ_9  and  OH_10
REMARK    7  A    between atoms: C_14  and  C_16
REMARK    8  A    between atoms: C_16  and  C_17
REMARK    9  A    between atoms: C_16  and  C_23
REMARK                            x       y       z     vdW  Elec       q    Type
REMARK                         _______ _______ _______ _____ _____    ______ ____
ROOT
ATOM      1  N   TYR A   1     -29.355 -13.718  18.982  0.00  0.00    -0.301 N 
ATOM      2  C   UNK A   0     -29.177 -13.482  17.577  0.00  0.00    +0.225 C 
ATOM      3  O   UNK A   0     -28.104 -12.967  17.155  0.00  0.00    -0.275 OA
ATOM      4  H   TYR A   1     -30.267 -14.121  19.300  0.00  0.00    +0.150 HD
ENDROOT
BRANCH   1   5
ATOM      5  CA  TYR A   1     -28.408 -13.225  19.984  0.00  0.00    +0.186 C 
BRANCH   5   7
ATOM      6  O   TYR A   1     -27.852 -14.943  21.571  0.00  0.00    -0.249 OA
ATOM      7  C   TYR A   1     -27.559 -14.360  20.492  0.00  0.00    +0.326 C 
BRANCH   7   8
ATOM      8  OXT TYR A   1     -26.434 -14.756  19.775  0.00  0.00    -0.479 OA
ATOM      9  HXT TYR A   1     -26.523 -15.316  18.936  0.00  0.00    +0.295 HD
ENDBRANCH   7   8
ENDBRANCH   5   7
BRANCH   5  10
ATOM     10  CB  TYR A   1     -29.175 -12.541  21.131  0.00  0.00    +0.069 C 
BRANCH  10  11
ATOM     11  CG  TYR A   1     -30.147 -11.512  20.614  0.00  0.00    -0.045 A 
ATOM     12  CD1 TYR A   1     -31.524 -11.644  20.863  0.00  0.00    +0.007 A 
ATOM     13  CE1 TYR A   1     -32.419 -10.669  20.409  0.00  0.00    +0.045 A 
ATOM     14  CZ  TYR A   1     -31.947  -9.553  19.710  0.00  0.00    +0.117 A 
ATOM     15  CE2 TYR A   1     -30.575  -9.413  19.466  0.00  0.00    +0.045 A 
ATOM     16  CD2 TYR A   1     -29.678 -10.386  19.918  0.00  0.00    +0.007 A 
BRANCH  14  17
ATOM     17  OH  TYR A   1     -32.850  -8.589  19.266  0.00  0.00    -0.507 OA
ATOM     18  HH  TYR A   1     -33.786  -8.522  19.651  0.00  0.00    +0.292 HD
ENDBRANCH  14  17
ENDBRANCH  10  11
ENDBRANCH   5  10
ENDBRANCH   1   5
BRANCH   2  19
ATOM     19  C   UNK A   0     -30.297 -13.825  16.618  0.00  0.00    +0.135 C 
BRANCH  19  20
ATOM     20  C   UNK A   0     -31.322 -12.710  16.506  0.00  0.00    -0.031 A 
ATOM     21  C   UNK A   0     -30.926 -11.459  15.999  0.00  0.00    +0.005 A 
ATOM     22  C   UNK A   0     -31.842 -10.406  15.911  0.00  0.00    +0.000 A 
ATOM     23  C   UNK A   0     -33.160 -10.585  16.339  0.00  0.00    +0.000 A 
ATOM     24  C   UNK A   0     -33.563 -11.817  16.860  0.00  0.00    +0.000 A 
ATOM     25  C   UNK A   0     -32.652 -12.872  16.952  0.00  0.00    +0.005 A 
ENDBRANCH  19  20
BRANCH  19  26
ATOM     26  C   UNK A   0     -29.791 -14.233  15.244  0.00  0.00    -0.031 A 
ATOM     27  C   UNK A   0     -28.470 -14.689  15.059  0.00  0.00    +0.005 A 
ATOM     28  C   UNK A   0     -28.020 -15.062  13.789  0.00  0.00    +0.000 A 
ATOM     29  C   UNK A   0     -28.880 -14.985  12.690  0.00  0.00    +0.000 A 
ATOM     30  C   UNK A   0     -30.191 -14.537  12.861  0.00  0.00    +0.000 A 
ATOM     31  C   UNK A   0     -30.648 -14.165  14.129  0.00  0.00    +0.005 A 
ENDBRANCH  19  26
ENDBRANCH   2  19
TORSDOF 9
ENDMDL
MODEL 2
REMARK VINA RESULT:    -5.280      2.283      5.562
REMARK INTER + INTRA:         -10.625
REMARK INTER:                  -7.908
REMARK INTRA:                  -2.717
REMARK UNBOUND:                -2.876
REMARK  Name = 
REMARK  9 active torsions:
REMARK  status: ('A' for Active; 'I' for Inactive)
REMARK    1  A    between atoms: C_2  and  OXT_3
REMARK    2  A    between atoms: C_2  and  CA_4
REMARK    3  A    between atoms: CA_4  and  CB_5
REMARK    4  A    between atoms: CA_4  and  N_13
REMARK    5  A    between atoms: CB_5  and  CG_6
REMARK    6  A    between atoms: CZ_9  and  OH_10
REMARK    7  A    between atoms: C_14  and  C_16
REMARK    8  A    between atoms: C_16  and  C_17
REMARK    9  A    between atoms: C_16  and  C_23
REMARK                            x       y       z     vdW  Elec       q    Type
REMARK                         _______ _______ _______ _____ _____    ______ ____
ROOT
ATOM      1  N   TYR A   1     -30.697 -10.407  19.649  0.00  0.00    -0.301 N 
ATOM      2  C   UNK A   0     -29.479 -11.160  19.544  0.00  0.00    +0.225 C 
ATOM      3  O   UNK A   0     -28.386 -10.564  19.335  0.00  0.00    -0.275 OA
ATOM      4  H   TYR A   1     -31.589 -10.935  19.795  0.00  0.00    +0.150 HD
ENDROOT
BRANCH   1   5
ATOM      5  CA  TYR A   1     -30.759  -8.975  19.349  0.00  0.00    +0.186 C 
BRANCH   5   7
ATOM      6  O   TYR A   1     -31.666  -8.361  21.490  0.00  0.00    -0.249 OA
ATOM      7  C   TYR A   1     -30.762  -8.181  20.629  0.00  0.00    +0.326 C 
BRANCH   7   8
ATOM      8  OXT TYR A   1     -29.771  -7.231  20.855  0.00  0.00    -0.479 OA
ATOM      9  HXT TYR A   1     -29.557  -6.528  20.157  0.00  0.00    +0.295 HD
ENDBRANCH   7   8
ENDBRANCH   5   7
BRANCH   5  10
ATOM     10  CB  TYR A   1     -32.009  -8.676  18.501  0.00  0.00    +0.069 C 
BRANCH  10  11
ATOM     11  CG  TYR A   1     -32.179  -9.678  17.388  0.00  0.00    -0.045 A 
ATOM     12  CD1 TYR A   1     -33.346 -10.455  17.301  0.00  0.00    +0.007 A 
ATOM     13  CE1 TYR A   1     -33.513 -11.361  16.248  0.00  0.00    +0.045 A 
ATOM     14  CZ  TYR A   1     -32.521 -11.493  15.271  0.00  0.00    +0.117 A 
ATOM     15  CE2 TYR A   1     -31.359 -10.715  15.349  0.00  0.00    +0.045 A 
ATOM     16  CD2 TYR A   1     -31.188  -9.810  16.401  0.00  0.00    +0.007 A 
BRANCH  14  17
ATOM     17  OH  TYR A   1     -32.702 -12.398  14.227  0.00  0.00    -0.507 OA
ATOM     18  HH  TYR A   1     -33.451 -12.287  13.553  0.00  0.00    +0.292 HD
ENDBRANCH  14  17
ENDBRANCH  10  11
ENDBRANCH   5  10
ENDBRANCH   1   5
BRANCH   2  19
ATOM     19  C   UNK A   0     -29.526 -12.669  19.654  0.00  0.00    +0.135 C 
BRANCH  19  20
ATOM     20  C   UNK A   0     -29.834 -13.334  18.323  0.00  0.00    -0.031 A 
ATOM     21  C   UNK A   0     -31.043 -14.036  18.168  0.00  0.00    +0.005 A 
ATOM     22  C   UNK A   0     -31.339 -14.682  16.963  0.00  0.00    +0.000 A 
ATOM     23  C   UNK A   0     -30.428 -14.645  15.905  0.00  0.00    +0.000 A 
ATOM     24  C   UNK A   0     -29.216 -13.966  16.051  0.00  0.00    +0.000 A 
ATOM     25  C   UNK A   0     -28.914 -13.319  17.252  0.00  0.00    +0.005 A 
ENDBRANCH  19  20
BRANCH  19  26
ATOM     26  C   UNK A   0     -28.267 -13.254  20.271  0.00  0.00    -0.031 A 
ATOM     27  C   UNK A   0     -27.011 -13.100  19.650  0.00  0.00    +0.005 A 
ATOM     28  C   UNK A   0     -25.862 -13.644  20.231  0.00  0.00    +0.000 A 
ATOM     29  C   UNK A   0     -25.950 -14.346  21.436  0.00  0.00    +0.000 A 
ATOM     30  C   UNK A   0     -27.188 -14.503  22.062  0.00  0.00    +0.000 A 
ATOM     31  C   UNK A   0     -28.341 -13.960  21.487  0.00  0.00    +0.005 A 
ENDBRANCH  19  26
ENDBRANCH   2  19
TORSDOF 9
ENDMDL
MODEL 3
REMARK VINA RESULT:    -5.154      1.908      4.974
REMARK INTER + INTRA:         -10.440
REMARK INTER:                  -7.571
REMARK INTRA:                  -2.869
REMARK UNBOUND:                -2.876
REMARK  Name = 
REMARK  9 active torsions:
REMARK  status: ('A' for Active; 'I' for Inactive)
REMARK    1  A    between atoms: C_2  and  OXT_3
REMARK    2  A    between atoms: C_2  and  CA_4
REMARK    3  A    between atoms: CA_4  and  CB_5
REMARK    4  A    between atoms: CA_4  and  N_13
REMARK    5  A    between atoms: CB_5  and  CG_6
REMARK    6  A    between atoms: CZ_9  and  OH_10
REMARK    7  A    between atoms: C_14  and  C_16
REMARK    8  A    between atoms: C_16  and  C_17
REMARK    9  A    between atoms: C_16  and  C_23
REMARK                            x       y       z     vdW  Elec       q    Type
REMARK                         _______ _______ _______ _____ _____    ______ ____
ROOT
ATOM      1  N   TYR A   1     -32.031 -10.261  17.974  0.00  0.00    -0.301 N 
ATOM      2  C   UNK A   0     -33.320 -10.862  17.775  0.00  0.00    +0.225 C 
ATOM      3  O   UNK A   0     -34.288 -10.536  18.516  0.00  0.00    -0.275 OA
ATOM      4  H   TYR A   1     -31.244 -10.573  17.359  0.00  0.00    +0.150 HD
ENDROOT
BRANCH   1   5
ATOM      5  CA  TYR A   1     -31.737  -9.404  19.125  0.00  0.00    +0.186 C 
BRANCH   5   7
ATOM      6  O   TYR A   1     -31.896  -7.054  19.608  0.00  0.00    -0.249 OA
ATOM      7  C   TYR A   1     -32.263  -8.014  18.878  0.00  0.00    +0.326 C 
BRANCH   7   8
ATOM      8  OXT TYR A   1     -33.173  -7.792  17.849  0.00  0.00    -0.479 OA
ATOM      9  HXT TYR A   1     -32.867  -7.428  16.955  0.00  0.00    +0.295 HD
ENDBRANCH   7   8
ENDBRANCH   5   7
BRANCH   5  10
ATOM     10  CB  TYR A   1     -30.220  -9.391  19.389  0.00  0.00    +0.069 C 
BRANCH  10  11
ATOM     11  CG  TYR A   1     -29.676 -10.784  19.574  0.00  0.00    -0.045 A 
ATOM     12  CD1 TYR A   1     -28.602 -11.239  18.790  0.00  0.00    +0.007 A 
ATOM     13  CE1 TYR A   1     -28.079 -12.521  18.988  0.00  0.00    +0.045 A 
ATOM     14  CZ  TYR A   1     -28.618 -13.357  19.972  0.00  0.00    +0.117 A 
ATOM     15  CE2 TYR A   1     -29.684 -12.905  20.761  0.00  0.00    +0.045 A 
ATOM     16  CD2 TYR A   1     -30.210 -11.624  20.565  0.00  0.00    +0.007 A 
BRANCH  14  17
ATOM     17  OH  TYR A   1     -28.086 -14.631  20.159  0.00  0.00    -0.507 OA
ATOM     18  HH  TYR A   1     -27.087 -14.781  20.244  0.00  0.00    +0.292 HD
ENDBRANCH  14  17
ENDBRANCH  10  11
ENDBRANCH   5  10
ENDBRANCH   1   5
BRANCH   2  19
ATOM     19  C   UNK A   0     -33.493 -11.905  16.693  0.00  0.00    +0.135 C 
BRANCH  19  20
ATOM     20  C   UNK A   0     -33.995 -11.307  15.390  0.00  0.00    -0.031 A 
ATOM     21  C   UNK A   0     -34.128 -12.134  14.259  0.00  0.00    +0.005 A 
ATOM     22  C   UNK A   0     -34.561 -11.604  13.039  0.00  0.00    +0.000 A 
ATOM     23  C   UNK A   0     -34.852 -10.242  12.931  0.00  0.00    +0.000 A 
ATOM     24  C   UNK A   0     -34.708  -9.406  14.040  0.00  0.00    +0.000 A 
ATOM     25  C   UNK A   0     -34.276  -9.929  15.262  0.00  0.00    +0.005 A 
ENDBRANCH  19  20
BRANCH  19  26
ATOM     26  C   UNK A   0     -32.236 -12.727  16.461  0.00  0.00    -0.031 A 
ATOM     27  C   UNK A   0     -31.324 -12.392  15.439  0.00  0.00    +0.005 A 
ATOM     28  C   UNK A   0     -30.172 -13.158  15.239  0.00  0.00    +0.000 A 
ATOM     29  C   UNK A   0     -29.915 -14.264  16.053  0.00  0.00    +0.000 A 
ATOM     30  C   UNK A   0     -30.808 -14.604  17.070  0.00  0.00    +0.000 A 
ATOM     31  C   UNK A   0     -31.962 -13.841  17.277  0.00  0.00    +0.005 A 
ENDBRANCH  19  26
ENDBRANCH   2  19
TORSDOF 9
ENDMDL
MODEL 4
REMARK VINA RESULT:    -5.035      1.686      5.295
REMARK INTER + INTRA:         -10.265
REMARK INTER:                  -7.273
REMARK INTRA:                  -2.993
REMARK UNBOUND:                -2.876
REMARK  Name = 
REMARK  9 active torsions:
REMARK  status: ('A' for Active; 'I' for Inactive)
REMARK    1  A    between atoms: C_2  and  OXT_3
REMARK    2  A    between atoms: C_2  and  CA_4
REMARK    3  A    between atoms: CA_4  and  CB_5
REMARK    4  A    between atoms: CA_4  and  N_13
REMARK    5  A    between atoms: CB_5  and  CG_6
REMARK    6  A    between atoms: CZ_9  and  OH_10
REMARK    7  A    between atoms: C_14  and  C_16
REMARK    8  A    between atoms: C_16  and  C_17
REMARK    9  A    between atoms: C_16  and  C_23
REMARK                            x       y       z     vdW  Elec       q    Type
REMARK                         _______ _______ _______ _____ _____    ______ ____
ROOT
ATOM      1  N   TYR A   1     -29.565 -13.110  16.527  0.00  0.00    -0.301 N 
ATOM      2  C   UNK A   0     -29.633 -13.407  17.931  0.00  0.00    +0.225 C 
ATOM      3  O   UNK A   0     -30.193 -14.469  18.324  0.00  0.00    -0.275 OA
ATOM      4  H   TYR A   1     -29.119 -12.209  16.238  0.00  0.00    +0.150 HD
ENDROOT
BRANCH   1   5
ATOM      5  CA  TYR A   1     -30.278 -13.905  15.524  0.00  0.00    +0.186 C 
BRANCH   5   7
ATOM      6  O   TYR A   1     -29.605 -15.008  13.497  0.00  0.00    -0.249 OA
ATOM      7  C   TYR A   1     -29.292 -14.651  14.665  0.00  0.00    +0.326 C 
BRANCH   7   8
ATOM      8  OXT TYR A   1     -28.033 -14.965  15.170  0.00  0.00    -0.479 OA
ATOM      9  HXT TYR A   1     -27.589 -14.371  15.860  0.00  0.00    +0.295 HD
ENDBRANCH   7   8
ENDBRANCH   5   7
BRANCH   5  10
ATOM     10  CB  TYR A   1     -31.177 -12.986  14.677  0.00  0.00    +0.069 C 
BRANCH  10  11
ATOM     11  CG  TYR A   1     -31.855 -11.938  15.522  0.00  0.00    -0.045 A 
ATOM     12  CD1 TYR A   1     -33.006 -12.255  16.263  0.00  0.00    +0.007 A 
ATOM     13  CE1 TYR A   1     -33.612 -11.287  17.071  0.00  0.00    +0.045 A 
ATOM     14  CZ  TYR A   1     -33.072 -10.000  17.152  0.00  0.00    +0.117 A 
ATOM     15  CE2 TYR A   1     -31.920  -9.681  16.421  0.00  0.00    +0.045 A 
ATOM     16  CD2 TYR A   1     -31.312 -10.645  15.612  0.00  0.00    +0.007 A 
BRANCH  14  17
ATOM     17  OH  TYR A   1     -33.686  -9.047  17.962  0.00  0.00    -0.507 OA
ATOM     18  HH  TYR A   1     -33.653  -8.059  17.737  0.00  0.00    +0.292 HD
ENDBRANCH  14  17
ENDBRANCH  10  11
ENDBRANCH   5  10
ENDBRANCH   1   5
BRANCH   2  19
ATOM     19  C   UNK A   0     -29.058 -12.424  18.927  0.00  0.00    +0.135 C 
BRANCH  19  20
ATOM     20  C   UNK A   0     -30.135 -11.608  19.620  0.00  0.00    -0.031 A 
ATOM     21  C   UNK A   0     -29.938 -10.229  19.810  0.00  0.00    +0.005 A 
ATOM     22  C   UNK A   0     -30.902  -9.458  20.471  0.00  0.00    +0.000 A 
ATOM     23  C   UNK A   0     -32.065 -10.058  20.958  0.00  0.00    +0.000 A 
ATOM     24  C   UNK A   0     -32.267 -11.430  20.791  0.00  0.00    +0.000 A 
ATOM     25  C   UNK A   0     -31.308 -12.205  20.133  0.00  0.00    +0.005 A 
ENDBRANCH  19  20
BRANCH  19  26
ATOM     26  C   UNK A   0     -28.143 -13.085  19.945  0.00  0.00    -0.031 A 
ATOM     27  C   UNK A   0     -28.656 -13.638  21.136  0.00  0.00    +0.005 A 
ATOM     28  C   UNK A   0     -27.802 -14.244  22.062  0.00  0.00    +0.000 A 
ATOM     29  C   UNK A   0     -26.429 -14.305  21.813  0.00  0.00    +0.000 A 
ATOM     30  C   UNK A   0     -25.908 -13.764  20.636  0.00  0.00    +0.000 A 
ATOM     31  C   UNK A   0     -26.758 -13.159  19.704  0.00  0.00    +0.005 A 
ENDBRANCH  19  26
ENDBRANCH   2  19
TORSDOF 9
ENDMDL
MODEL 5
REMARK VINA RESULT:    -4.981      2.307      5.547
REMARK INTER + INTRA:         -10.187
REMARK INTER:                  -7.218
REMARK INTRA:                  -2.969
REMARK UNBOUND:                -2.876
REMARK  Name = 
REMARK  9 active torsions:
REMARK  status: ('A' for Active; 'I' for Inactive)
REMARK    1  A    between atoms: C_2  and  OXT_3
REMARK    2  A    between atoms: C_2  and  CA_4
REMARK    3  A    between atoms: CA_4  and  CB_5
REMARK    4  A    between atoms: CA_4  and  N_13
REMARK    5  A    between atoms: CB_5  and  CG_6
REMARK    6  A    between atoms: CZ_9  and  OH_10
REMARK    7  A    between atoms: C_14  and  C_16
REMARK    8  A    between atoms: C_16  and  C_17
REMARK    9  A    between atoms: C_16  and  C_23
REMARK                            x       y       z     vdW  Elec       q    Type
REMARK                         _______ _______ _______ _____ _____    ______ ____
ROOT
ATOM      1  N   TYR A   1     -31.193 -11.021  19.008  0.00  0.00    -0.301 N 
ATOM      2  C   UNK A   0     -29.839 -11.094  19.481  0.00  0.00    +0.225 C 
ATOM      3  O   UNK A   0     -29.447 -10.315  20.394  0.00  0.00    -0.275 OA
ATOM      4  H   TYR A   1     -31.477 -11.663  18.233  0.00  0.00    +0.150 HD
ENDROOT
BRANCH   1   5
ATOM      5  CA  TYR A   1     -32.108  -9.952  19.419  0.00  0.00    +0.186 C 
BRANCH   5   7
ATOM      6  O   TYR A   1     -33.064 -11.595  20.890  0.00  0.00    -0.249 OA
ATOM      7  C   TYR A   1     -33.229 -10.524  20.245  0.00  0.00    +0.326 C 
BRANCH   7   8
ATOM      8  OXT TYR A   1     -34.460  -9.877  20.282  0.00  0.00    -0.479 OA
ATOM      9  HXT TYR A   1     -35.226 -10.248  20.831  0.00  0.00    +0.295 HD
ENDBRANCH   7   8
ENDBRANCH   5   7
BRANCH   5  10
ATOM     10  CB  TYR A   1     -32.644  -9.222  18.173  0.00  0.00    +0.069 C 
BRANCH  10  11
ATOM     11  CG  TYR A   1     -32.657 -10.122  16.964  0.00  0.00    -0.045 A 
ATOM     12  CD1 TYR A   1     -33.760 -10.954  16.706  0.00  0.00    +0.007 A 
ATOM     13  CE1 TYR A   1     -33.781 -11.762  15.565  0.00  0.00    +0.045 A 
ATOM     14  CZ  TYR A   1     -32.707 -11.743  14.669  0.00  0.00    +0.117 A 
ATOM     15  CE2 TYR A   1     -31.608 -10.909  14.917  0.00  0.00    +0.045 A 
ATOM     16  CD2 TYR A   1     -31.584 -10.100  16.058  0.00  0.00    +0.007 A 
BRANCH  14  17
ATOM     17  OH  TYR A   1     -32.743 -12.553  13.536  0.00  0.00    -0.507 OA
ATOM     18  HH  TYR A   1     -31.913 -12.724  12.980  0.00  0.00    +0.292 HD
ENDBRANCH  14  17
ENDBRANCH  10  11
ENDBRANCH   5  10
ENDBRANCH   1   5
BRANCH   2  19
ATOM     19  C   UNK A   0     -28.887 -12.089  18.854  0.00  0.00    +0.135 C 
BRANCH  19  20
ATOM     20  C   UNK A   0     -28.105 -12.873  19.894  0.00  0.00    -0.031 A 
ATOM     21  C   UNK A   0     -26.719 -13.047  19.727  0.00  0.00    +0.005 A 
ATOM     22  C   UNK A   0     -25.980 -13.789  20.654  0.00  0.00    +0.000 A 
ATOM     23  C   UNK A   0     -26.617 -14.375  21.751  0.00  0.00    +0.000 A 
ATOM     24  C   UNK A   0     -27.995 -14.224  21.921  0.00  0.00    +0.000 A 
ATOM     25  C   UNK A   0     -28.739 -13.486  20.997  0.00  0.00    +0.005 A 
ENDBRANCH  19  20
BRANCH  19  26
ATOM     26  C   UNK A   0     -29.575 -13.027  17.876  0.00  0.00    -0.031 A 
ATOM     27  C   UNK A   0     -30.836 -13.586  18.166  0.00  0.00    +0.005 A 
ATOM     28  C   UNK A   0     -31.456 -14.447  17.256  0.00  0.00    +0.000 A 
ATOM     29  C   UNK A   0     -30.829 -14.759  16.047  0.00  0.00    +0.000 A 
ATOM     30  C   UNK A   0     -29.581 -14.209  15.747  0.00  0.00    +0.000 A 
ATOM     31  C   UNK A   0     -28.956 -13.347  16.652  0.00  0.00    +0.005 A 
ENDBRANCH  19  26
ENDBRANCH   2  19
TORSDOF 9
ENDMDL
MODEL 6
REMARK VINA RESULT:    -4.738      2.031      5.308
REMARK INTER + INTRA:          -9.829
REMARK INTER:                  -7.301
REMARK INTRA:                  -2.527
REMARK UNBOUND:                -2.876
REMARK  Name = 
REMARK  9 active torsions:
REMARK  status: ('A' for Active; 'I' for Inactive)
REMARK    1  A    between atoms: C_2  and  OXT_3
REMARK    2  A    between atoms: C_2  and  CA_4
REMARK    3  A    between atoms: CA_4  and  CB_5
REMARK    4  A    between atoms: CA_4  and  N_13
REMARK    5  A    between atoms: CB_5  and  CG_6
REMARK    6  A    between atoms: CZ_9  and  OH_10
REMARK    7  A    between atoms: C_14  and  C_16
REMARK    8  A    between atoms: C_16  and  C_17
REMARK    9  A    between atoms: C_16  and  C_23
REMARK                            x       y       z     vdW  Elec       q    Type
REMARK                         _______ _______ _______ _____ _____    ______ ____
ROOT
ATOM      1  N   TYR A   1     -32.400 -10.561  17.847  0.00  0.00    -0.301 N 
ATOM      2  C   UNK A   0     -31.611 -10.117  16.731  0.00  0.00    +0.225 C 
ATOM      3  O   UNK A   0     -31.057  -8.983  16.762  0.00  0.00    -0.275 OA
ATOM      4  H   TYR A   1     -32.867 -11.495  17.777  0.00  0.00    +0.150 HD
ENDROOT
BRANCH   1   5
ATOM      5  CA  TYR A   1     -32.741  -9.677  18.964  0.00  0.00    +0.186 C 
BRANCH   5   7
ATOM      6  O   TYR A   1     -34.292  -8.183  17.897  0.00  0.00    -0.249 OA
ATOM      7  C   TYR A   1     -33.165  -8.330  18.442  0.00  0.00    +0.326 C 
BRANCH   7   8
ATOM      8  OXT TYR A   1     -32.300  -7.244  18.547  0.00  0.00    -0.479 OA
ATOM      9  HXT TYR A   1     -32.629  -6.350  18.890  0.00  0.00    +0.295 HD
ENDBRANCH   7   8
ENDBRANCH   5   7
BRANCH   5  10
ATOM     10  CB  TYR A   1     -31.536  -9.556  19.916  0.00  0.00    +0.069 C 
BRANCH  10  11
ATOM     11  CG  TYR A   1     -30.702 -10.812  19.920  0.00  0.00    -0.045 A 
ATOM     12  CD1 TYR A   1     -31.233 -12.017  20.413  0.00  0.00    +0.007 A 
ATOM     13  CE1 TYR A   1     -30.467 -13.187  20.385  0.00  0.00    +0.045 A 
ATOM     14  CZ  TYR A   1     -29.170 -13.167  19.861  0.00  0.00    +0.117 A 
ATOM     15  CE2 TYR A   1     -28.640 -11.970  19.361  0.00  0.00    +0.045 A 
ATOM     16  CD2 TYR A   1     -29.403 -10.798  19.389  0.00  0.00    +0.007 A 
BRANCH  14  17
ATOM     17  OH  TYR A   1     -28.420 -14.340  19.838  0.00  0.00    -0.507 OA
ATOM     18  HH  TYR A   1     -27.920 -14.666  20.658  0.00  0.00    +0.292 HD
ENDBRANCH  14  17
ENDBRANCH  10  11
ENDBRANCH   5  10
ENDBRANCH   1   5
BRANCH   2  19
ATOM     19  C   UNK A   0     -31.480 -11.007  15.514  0.00  0.00    +0.135 C 
BRANCH  19  20
ATOM     20  C   UNK A   0     -31.116 -12.435  15.881  0.00  0.00    -0.031 A 
ATOM     21  C   UNK A   0     -32.001 -13.191  16.670  0.00  0.00    +0.005 A 
ATOM     22  C   UNK A   0     -31.678 -14.499  17.046  0.00  0.00    +0.000 A 
ATOM     23  C   UNK A   0     -30.463 -15.062  16.649  0.00  0.00    +0.000 A 
ATOM     24  C   UNK A   0     -29.566 -14.318  15.879  0.00  0.00    +0.000 A 
ATOM     25  C   UNK A   0     -29.883 -13.010  15.501  0.00  0.00    +0.005 A 
ENDBRANCH  19  20
BRANCH  19  26
ATOM     26  C   UNK A   0     -32.714 -10.976  14.627  0.00  0.00    -0.031 A 
ATOM     27  C   UNK A   0     -32.889 -11.913  13.588  0.00  0.00    +0.005 A 
ATOM     28  C   UNK A   0     -34.030 -11.871  12.781  0.00  0.00    +0.000 A 
ATOM     29  C   UNK A   0     -35.008 -10.898  13.000  0.00  0.00    +0.000 A 
ATOM     30  C   UNK A   0     -34.848  -9.967  14.027  0.00  0.00    +0.000 A 
ATOM     31  C   UNK A   0     -33.710 -10.004  14.839  0.00  0.00    +0.005 A 
ENDBRANCH  19  26
ENDBRANCH   2  19
TORSDOF 9
ENDMDL
MODEL 7
REMARK VINA RESULT:    -4.666      1.838      5.949
REMARK INTER + INTRA:          -9.724
REMARK INTER:                  -6.554
REMARK INTRA:                  -3.170
REMARK UNBOUND:                -2.876
REMARK  Name = 
REMARK  9 active torsions:
REMARK  status: ('A' for Active; 'I' for Inactive)
REMARK    1  A    between atoms: C_2  and  OXT_3
REMARK    2  A    between atoms: C_2  and  CA_4
REMARK    3  A    between atoms: CA_4  and  CB_5
REMARK    4  A    between atoms: CA_4  and  N_13
REMARK    5  A    between atoms: CB_5  and  CG_6
REMARK    6  A    between atoms: CZ_9  and  OH_10
REMARK    7  A    between atoms: C_14  and  C_16
REMARK    8  A    between atoms: C_16  and  C_17
REMARK    9  A    between atoms: C_16  and  C_23
REMARK                            x       y       z     vdW  Elec       q    Type
REMARK                         _______ _______ _______ _____ _____    ______ ____
ROOT
ATOM      1  N   TYR A   1     -30.141 -13.110  17.262  0.00  0.00    -0.301 N 
ATOM      2  C   UNK A   0     -30.551 -13.864  18.414  0.00  0.00    +0.225 C 
ATOM      3  O   UNK A   0     -31.124 -14.979  18.268  0.00  0.00    -0.275 OA
ATOM      4  H   TYR A   1     -29.693 -12.178  17.419  0.00  0.00    +0.150 HD
ENDROOT
BRANCH   1   5
ATOM      5  CA  TYR A   1     -30.517 -13.499  15.900  0.00  0.00    +0.186 C 
BRANCH   5   7
ATOM      6  O   TYR A   1     -29.421 -14.493  14.007  0.00  0.00    -0.249 OA
ATOM      7  C   TYR A   1     -29.373 -14.217  15.236  0.00  0.00    +0.326 C 
BRANCH   7   8
ATOM      8  OXT TYR A   1     -28.264 -14.594  15.987  0.00  0.00    -0.479 OA
ATOM      9  HXT TYR A   1     -28.317 -15.369  16.638  0.00  0.00    +0.295 HD
ENDBRANCH   7   8
ENDBRANCH   5   7
BRANCH   5  10
ATOM     10  CB  TYR A   1     -30.935 -12.250  15.102  0.00  0.00    +0.069 C 
BRANCH  10  11
ATOM     11  CG  TYR A   1     -32.036 -11.489  15.795  0.00  0.00    -0.045 A 
ATOM     12  CD1 TYR A   1     -33.206 -12.148  16.209  0.00  0.00    +0.007 A 
ATOM     13  CE1 TYR A   1     -34.211 -11.444  16.882  0.00  0.00    +0.045 A 
ATOM     14  CZ  TYR A   1     -34.054 -10.081  17.152  0.00  0.00    +0.117 A 
ATOM     15  CE2 TYR A   1     -32.886  -9.421  16.748  0.00  0.00    +0.045 A 
ATOM     16  CD2 TYR A   1     -31.880 -10.121  16.075  0.00  0.00    +0.007 A 
BRANCH  14  17
ATOM     17  OH  TYR A   1     -35.062  -9.393  17.824  0.00  0.00    -0.507 OA
ATOM     18  HH  TYR A   1     -36.019  -9.396  17.490  0.00  0.00    +0.292 HD
ENDBRANCH  14  17
ENDBRANCH  10  11
ENDBRANCH   5  10
ENDBRANCH   1   5
BRANCH   2  19
ATOM     19  C   UNK A   0     -30.316 -13.292  19.796  0.00  0.00    +0.135 C 
BRANCH  19  20
ATOM     20  C   UNK A   0     -28.882 -13.477  20.260  0.00  0.00    -0.031 A 
ATOM     21  C   UNK A   0     -28.635 -13.929  21.569  0.00  0.00    +0.005 A 
ATOM     22  C   UNK A   0     -27.323 -14.081  22.032  0.00  0.00    +0.000 A 
ATOM     23  C   UNK A   0     -26.246 -13.771  21.199  0.00  0.00    +0.000 A 
ATOM     24  C   UNK A   0     -26.476 -13.305  19.903  0.00  0.00    +0.000 A 
ATOM     25  C   UNK A   0     -27.784 -13.151  19.435  0.00  0.00    +0.005 A 
ENDBRANCH  19  20
BRANCH  19  26
ATOM     26  C   UNK A   0     -30.737 -11.836  19.910  0.00  0.00    -0.031 A 
ATOM     27  C   UNK A   0     -29.873 -10.794  19.517  0.00  0.00    +0.005 A 
ATOM     28  C   UNK A   0     -30.275  -9.460  19.628  0.00  0.00    +0.000 A 
ATOM     29  C   UNK A   0     -31.541  -9.149  20.130  0.00  0.00    +0.000 A 
ATOM     30  C   UNK A   0     -32.408 -10.172  20.520  0.00  0.00    +0.000 A 
ATOM     31  C   UNK A   0     -32.012 -11.509  20.410  0.00  0.00    +0.005 A 
ENDBRANCH  19  26
ENDBRANCH   2  19
TORSDOF 9
ENDMDL
