MODEL 1
REMARK VINA RESULT:    -4.447      0.000      0.000
REMARK INTER + INTRA:          -8.618
REMARK INTER:                  -6.266
REMARK INTRA:                  -2.352
REMARK UNBOUND:                -2.352
REMARK  Name = 
REMARK  7 active torsions:
REMARK  status: ('A' for Active; 'I' for Inactive)
REMARK    1  A    between atoms: C_2  and  C_16
REMARK    2  A    between atoms: N_3  and  C_4
REMARK    3  A    between atoms: C_4  and  C_5
REMARK    4  A    between atoms: C_10  and  O_11
REMARK    5  A    between atoms: O_11  and  C_12
REMARK    6  A    between atoms: C_12  and  C_13
REMARK    7  A    between atoms: C_18  and  C_19
REMARK                            x       y       z     vdW  Elec       q    Type
REMARK                         _______ _______ _______ _____ _____    ______ ____
ROOT
ATOM      1  O   UNL     1     -31.025 -13.438  19.614  0.00  0.00    -0.275 OA
ATOM      2  C   UNL     1     -30.102 -13.405  18.755  0.00  0.00    +0.217 C 
ATOM      3  N   UNL     1     -30.383 -13.717  17.386  0.00  0.00    -0.311 N 
ATOM      4  H   UNL     1     -29.626 -13.578  16.678  0.00  0.00    +0.149 HD
ENDROOT
BRANCH   2   5
ATOM      5  C   UNL     1     -28.719 -12.957  19.152  0.00  0.00    +0.083 C 
ATOM      6  C   UNL     1     -27.902 -12.349  18.017  0.00  0.00    +0.022 C 
ATOM      7  C   UNL     1     -28.407 -11.454  19.146  0.00  0.00    +0.033 C 
BRANCH   7   8
ATOM      8  C   UNL     1     -29.535 -10.506  18.810  0.00  0.00    -0.025 A 
ATOM      9  C   UNL     1     -29.840 -10.245  17.467  0.00  0.00    +0.007 A 
ATOM     10  C   UNL     1     -30.924  -9.430  17.139  0.00  0.00    +0.020 A 
ATOM     11  C   UNL     1     -31.711  -8.896  18.160  0.00  0.00    +0.111 A 
ATOM     12  N   UNL     1     -31.431  -9.188  19.458  0.00  0.00    -0.263 NA
ATOM     13  C   UNL     1     -30.381  -9.981  19.803  0.00  0.00    +0.114 A 
ENDBRANCH   7   8
ENDBRANCH   2   5
BRANCH   3  14
ATOM     14  C   UNL     1     -31.717 -14.128  16.951  0.00  0.00    +0.143 C 
BRANCH  14  15
ATOM     15  C   UNL     1     -32.370 -13.030  16.149  0.00  0.00    +0.011 A 
ATOM     16  C   UNL     1     -33.536 -12.423  16.644  0.00  0.00    +0.009 A 
ATOM     17  C   UNL     1     -34.142 -11.378  15.944  0.00  0.00    +0.001 A 
ATOM     18  C   UNL     1     -33.584 -10.922  14.750  0.00  0.00    +0.004 A 
ATOM     19  C   UNL     1     -32.418 -11.506  14.252  0.00  0.00    +0.046 A 
ATOM     20  C   UNL     1     -31.796 -12.566  14.945  0.00  0.00    +0.125 A 
BRANCH  20  21
ATOM     21  O   UNL     1     -30.617 -13.173  14.476  0.00  0.00    -0.491 OA
BRANCH  21  22
ATOM     22  C   UNL     1     -30.482 -13.900  13.256  0.00  0.00    +0.232 C 
BRANCH  22  23
ATOM     23  C   UNL     1     -29.468 -15.039  13.422  0.00  0.00    +0.027 C 
ATOM     24  C   UNL     1     -28.031 -14.687  13.071  0.00  0.00    +0.007 C 
ATOM     25  C   UNL     1     -28.445 -14.835  14.529  0.00  0.00    +0.007 C 
ENDBRANCH  22  23
ENDBRANCH  21  22
ENDBRANCH  20  21
ENDBRANCH  14  15
ENDBRANCH   3  14
TORSDOF 7
ENDMDL
MODEL 2
REMARK VINA RESULT:    -4.245      2.377      4.828
REMARK INTER + INTRA:          -8.334
REMARK INTER:                  -6.040
REMARK INTRA:                  -2.294
REMARK UNBOUND:                -2.352
REMARK  Name = 
REMARK  7 active torsions:
REMARK  status: ('A' for Active; 'I' for Inactive)
REMARK    1  A    between atoms: C_2  and  C_16
REMARK    2  A    between atoms: N_3  and  C_4
REMARK    3  A    between atoms: C_4  and  C_5
REMARK    4  A    between atoms: C_10  and  O_11
REMARK    5  A    between atoms: O_11  and  C_12
REMARK    6  A    between atoms: C_12  and  C_13
REMARK    7  A    between atoms: C_18  and  C_19
REMARK                            x       y       z     vdW  Elec       q    Type
REMARK                         _______ _______ _______ _____ _____    ______ ____
ROOT
ATOM      1  O   UNL     1     -33.226 -11.405  20.192  0.00  0.00    -0.275 OA
ATOM      2  C   UNL     1     -32.139 -10.786  20.360  0.00  0.00    +0.217 C 
ATOM      3  N   UNL     1     -30.900 -11.503  20.377  0.00  0.00    -0.311 N 
ATOM      4  H   UNL     1     -30.009 -10.956  20.410  0.00  0.00    +0.149 HD
ENDROOT
BRANCH   2   5
ATOM      5  C   UNL     1     -32.136  -9.283  20.462  0.00  0.00    +0.083 C 
ATOM      6  C   UNL     1     -30.780  -8.635  20.208  0.00  0.00    +0.022 C 
ATOM      7  C   UNL     1     -31.900  -8.464  19.185  0.00  0.00    +0.033 C 
BRANCH   7   8
ATOM      8  C   UNL     1     -31.756  -9.219  17.885  0.00  0.00    -0.025 A 
ATOM      9  C   UNL     1     -32.875  -9.390  17.059  0.00  0.00    +0.007 A 
ATOM     10  C   UNL     1     -32.744 -10.022  15.822  0.00  0.00    +0.020 A 
ATOM     11  C   UNL     1     -31.486 -10.461  15.408  0.00  0.00    +0.111 A 
ATOM     12  N   UNL     1     -30.400 -10.254  16.199  0.00  0.00    -0.263 NA
ATOM     13  C   UNL     1     -30.502  -9.640  17.409  0.00  0.00    +0.114 A 
ENDBRANCH   7   8
ENDBRANCH   2   5
BRANCH   3  14
ATOM     14  C   UNL     1     -30.854 -12.959  20.252  0.00  0.00    +0.143 C 
BRANCH  14  15
ATOM     15  C   UNL     1     -30.392 -13.354  18.871  0.00  0.00    +0.011 A 
ATOM     16  C   UNL     1     -31.293 -13.997  18.007  0.00  0.00    +0.009 A 
ATOM     17  C   UNL     1     -30.907 -14.341  16.711  0.00  0.00    +0.001 A 
ATOM     18  C   UNL     1     -29.624 -14.036  16.260  0.00  0.00    +0.004 A 
ATOM     19  C   UNL     1     -28.721 -13.384  17.103  0.00  0.00    +0.046 A 
ATOM     20  C   UNL     1     -29.093 -13.034  18.418  0.00  0.00    +0.125 A 
BRANCH  20  21
ATOM     21  O   UNL     1     -28.212 -12.372  19.291  0.00  0.00    -0.491 OA
BRANCH  21  22
ATOM     22  C   UNL     1     -26.923 -12.839  19.686  0.00  0.00    +0.232 C 
BRANCH  22  23
ATOM     23  C   UNL     1     -27.051 -14.126  20.510  0.00  0.00    +0.027 C 
ATOM     24  C   UNL     1     -25.742 -14.703  21.026  0.00  0.00    +0.007 C 
ATOM     25  C   UNL     1     -26.689 -13.990  21.981  0.00  0.00    +0.007 C 
ENDBRANCH  22  23
ENDBRANCH  21  22
ENDBRANCH  20  21
ENDBRANCH  14  15
ENDBRANCH   3  14
TORSDOF 7
ENDMDL
MODEL 3
REMARK VINA RESULT:    -4.205      1.008      3.636
REMARK INTER + INTRA:          -8.278
REMARK INTER:                  -6.823
REMARK INTRA:                  -1.455
REMARK UNBOUND:                -2.352
REMARK  Name = 
REMARK  7 active torsions:
REMARK  status: ('A' for Active; 'I' for Inactive)
REMARK    1  A    between atoms: C_2  and  C_16
REMARK    2  A    between atoms: N_3  and  C_4
REMARK    3  A    between atoms: C_4  and  C_5
REMARK    4  A    between atoms: C_10  and  O_11
REMARK    5  A    between atoms: O_11  and  C_12
REMARK    6  A    between atoms: C_12  and  C_13
REMARK    7  A    between atoms: C_18  and  C_19
REMARK                            x       y       z     vdW  Elec       q    Type
REMARK                         _______ _______ _______ _____ _____    ______ ____
ROOT
ATOM      1  O   UNL     1     -30.797 -13.743  18.960  0.00  0.00    -0.275 OA
ATOM      2  C   UNL     1     -29.612 -13.572  18.563  0.00  0.00    +0.217 C 
ATOM      3  N   UNL     1     -29.245 -13.926  17.225  0.00  0.00    -0.311 N 
ATOM      4  H   UNL     1     -28.288 -13.675  16.888  0.00  0.00    +0.149 HD
ENDROOT
BRANCH   2   5
ATOM      5  C   UNL     1     -28.601 -12.917  19.468  0.00  0.00    +0.083 C 
ATOM      6  C   UNL     1     -27.564 -12.066  18.745  0.00  0.00    +0.022 C 
ATOM      7  C   UNL     1     -28.625 -11.389  19.608  0.00  0.00    +0.033 C 
BRANCH   7   8
ATOM      8  C   UNL     1     -29.715 -10.637  18.881  0.00  0.00    -0.025 A 
ATOM      9  C   UNL     1     -30.847 -10.207  19.588  0.00  0.00    +0.007 A 
ATOM     10  C   UNL     1     -31.828  -9.448  18.949  0.00  0.00    +0.020 A 
ATOM     11  C   UNL     1     -31.660  -9.105  17.607  0.00  0.00    +0.111 A 
ATOM     12  N   UNL     1     -30.540  -9.493  16.941  0.00  0.00    -0.263 NA
ATOM     13  C   UNL     1     -29.569 -10.231  17.543  0.00  0.00    +0.114 A 
ENDBRANCH   7   8
ENDBRANCH   2   5
BRANCH   3  14
ATOM     14  C   UNL     1     -30.202 -14.536  16.303  0.00  0.00    +0.143 C 
BRANCH  14  15
ATOM     15  C   UNL     1     -29.660 -14.520  14.895  0.00  0.00    +0.011 A 
ATOM     16  C   UNL     1     -28.328 -14.901  14.671  0.00  0.00    +0.009 A 
ATOM     17  C   UNL     1     -27.809 -14.932  13.375  0.00  0.00    +0.001 A 
ATOM     18  C   UNL     1     -28.618 -14.596  12.291  0.00  0.00    +0.004 A 
ATOM     19  C   UNL     1     -29.949 -14.228  12.496  0.00  0.00    +0.046 A 
ATOM     20  C   UNL     1     -30.487 -14.186  13.800  0.00  0.00    +0.125 A 
BRANCH  20  21
ATOM     21  O   UNL     1     -31.825 -13.827  14.043  0.00  0.00    -0.491 OA
BRANCH  21  22
ATOM     22  C   UNL     1     -32.456 -12.621  13.611  0.00  0.00    +0.232 C 
BRANCH  22  23
ATOM     23  C   UNL     1     -32.524 -11.613  14.765  0.00  0.00    +0.027 C 
ATOM     24  C   UNL     1     -33.922 -11.157  15.151  0.00  0.00    +0.007 C 
ATOM     25  C   UNL     1     -33.166 -12.134  16.041  0.00  0.00    +0.007 C 
ENDBRANCH  22  23
ENDBRANCH  21  22
ENDBRANCH  20  21
ENDBRANCH  14  15
ENDBRANCH   3  14
TORSDOF 7
ENDMDL
MODEL 4
REMARK VINA RESULT:    -4.118      1.923      2.630
REMARK INTER + INTRA:          -8.155
REMARK INTER:                  -6.417
REMARK INTRA:                  -1.738
REMARK UNBOUND:                -2.352
REMARK  Name = 
REMARK  7 active torsions:
REMARK  status: ('A' for Active; 'I' for Inactive)
REMARK    1  A    between atoms: C_2  and  C_16
REMARK    2  A    between atoms: N_3  and  C_4
REMARK    3  A    between atoms: C_4  and  C_5
REMARK    4  A    between atoms: C_10  and  O_11
REMARK    5  A    between atoms: O_11  and  C_12
REMARK    6  A    between atoms: C_12  and  C_13
REMARK    7  A    between atoms: C_18  and  C_19
REMARK                            x       y       z     vdW  Elec       q    Type
REMARK                         _______ _______ _______ _____ _____    ______ ____
ROOT
ATOM      1  O   UNL     1     -28.245 -10.368  18.135  0.00  0.00    -0.275 OA
ATOM      2  C   UNL     1     -28.924 -11.415  17.947  0.00  0.00    +0.217 C 
ATOM      3  N   UNL     1     -30.069 -11.383  17.088  0.00  0.00    -0.311 N 
ATOM      4  H   UNL     1     -30.549 -12.285  16.865  0.00  0.00    +0.149 HD
ENDROOT
BRANCH   2   5
ATOM      5  C   UNL     1     -28.483 -12.719  18.559  0.00  0.00    +0.083 C 
ATOM      6  C   UNL     1     -27.752 -12.577  19.889  0.00  0.00    +0.022 C 
ATOM      7  C   UNL     1     -29.154 -13.180  19.860  0.00  0.00    +0.033 C 
BRANCH   7   8
ATOM      8  C   UNL     1     -30.274 -12.328  20.410  0.00  0.00    -0.025 A 
ATOM      9  C   UNL     1     -31.577 -12.502  19.924  0.00  0.00    +0.007 A 
ATOM     10  C   UNL     1     -32.633 -11.774  20.473  0.00  0.00    +0.020 A 
ATOM     11  C   UNL     1     -32.383 -10.890  21.522  0.00  0.00    +0.111 A 
ATOM     12  N   UNL     1     -31.122 -10.759  22.014  0.00  0.00    -0.263 NA
ATOM     13  C   UNL     1     -30.076 -11.458  21.497  0.00  0.00    +0.114 A 
ENDBRANCH   7   8
ENDBRANCH   2   5
BRANCH   3  14
ATOM     14  C   UNL     1     -30.516 -10.146  16.449  0.00  0.00    +0.143 C 
BRANCH  14  15
ATOM     15  C   UNL     1     -31.819 -10.370  15.723  0.00  0.00    +0.011 A 
ATOM     16  C   UNL     1     -32.861  -9.444  15.886  0.00  0.00    +0.009 A 
ATOM     17  C   UNL     1     -34.064  -9.603  15.197  0.00  0.00    +0.001 A 
ATOM     18  C   UNL     1     -34.234 -10.681  14.330  0.00  0.00    +0.004 A 
ATOM     19  C   UNL     1     -33.202 -11.603  14.146  0.00  0.00    +0.046 A 
ATOM     20  C   UNL     1     -31.982 -11.459  14.838  0.00  0.00    +0.125 A 
BRANCH  20  21
ATOM     21  O   UNL     1     -30.919 -12.365  14.672  0.00  0.00    -0.491 OA
BRANCH  21  22
ATOM     22  C   UNL     1     -30.897 -13.466  13.764  0.00  0.00    +0.232 C 
BRANCH  22  23
ATOM     23  C   UNL     1     -30.364 -14.723  14.463  0.00  0.00    +0.027 C 
ATOM     24  C   UNL     1     -29.099 -14.526  15.283  0.00  0.00    +0.007 C 
ATOM     25  C   UNL     1     -30.440 -14.699  15.982  0.00  0.00    +0.007 C 
ENDBRANCH  22  23
ENDBRANCH  21  22
ENDBRANCH  20  21
ENDBRANCH  14  15
ENDBRANCH   3  14
TORSDOF 7
ENDMDL
MODEL 5
REMARK VINA RESULT:    -4.098      2.170      5.284
REMARK INTER + INTRA:          -8.127
REMARK INTER:                  -5.657
REMARK INTRA:                  -2.470
REMARK UNBOUND:                -2.352
REMARK  Name = 
REMARK  7 active torsions:
REMARK  status: ('A' for Active; 'I' for Inactive)
REMARK    1  A    between atoms: C_2  and  C_16
REMARK    2  A    between atoms: N_3  and  C_4
REMARK    3  A    between atoms: C_4  and  C_5
REMARK    4  A    between atoms: C_10  and  O_11
REMARK    5  A    between atoms: O_11  and  C_12
REMARK    6  A    between atoms: C_12  and  C_13
REMARK    7  A    between atoms: C_18  and  C_19
REMARK                            x       y       z     vdW  Elec       q    Type
REMARK                         _______ _______ _______ _____ _____    ______ ____
ROOT
ATOM      1  O   UNL     1     -28.334 -10.153  17.508  0.00  0.00    -0.275 OA
ATOM      2  C   UNL     1     -28.974 -10.677  18.460  0.00  0.00    +0.217 C 
ATOM      3  N   UNL     1     -30.362 -10.376  18.643  0.00  0.00    -0.311 N 
ATOM      4  H   UNL     1     -30.894 -10.905  19.373  0.00  0.00    +0.149 HD
ENDROOT
BRANCH   2   5
ATOM      5  C   UNL     1     -28.301 -11.683  19.357  0.00  0.00    +0.083 C 
ATOM      6  C   UNL     1     -29.243 -12.408  20.312  0.00  0.00    +0.022 C 
ATOM      7  C   UNL     1     -28.613 -13.172  19.150  0.00  0.00    +0.033 C 
BRANCH   7   8
ATOM      8  C   UNL     1     -29.525 -13.543  18.005  0.00  0.00    -0.025 A 
ATOM      9  C   UNL     1     -28.991 -13.696  16.718  0.00  0.00    +0.007 A 
ATOM     10  C   UNL     1     -29.807 -14.109  15.664  0.00  0.00    +0.020 A 
ATOM     11  C   UNL     1     -31.151 -14.389  15.909  0.00  0.00    +0.111 A 
ATOM     12  N   UNL     1     -31.650 -14.277  17.169  0.00  0.00    -0.263 NA
ATOM     13  C   UNL     1     -30.875 -13.877  18.213  0.00  0.00    +0.114 A 
ENDBRANCH   7   8
ENDBRANCH   2   5
BRANCH   3  14
ATOM     14  C   UNL     1     -31.063  -9.429  17.778  0.00  0.00    +0.143 C 
BRANCH  14  15
ATOM     15  C   UNL     1     -32.036 -10.154  16.882  0.00  0.00    +0.011 A 
ATOM     16  C   UNL     1     -31.803 -10.178  15.498  0.00  0.00    +0.009 A 
ATOM     17  C   UNL     1     -32.664 -10.873  14.648  0.00  0.00    +0.001 A 
ATOM     18  C   UNL     1     -33.758 -11.560  15.171  0.00  0.00    +0.004 A 
ATOM     19  C   UNL     1     -33.996 -11.557  16.547  0.00  0.00    +0.046 A 
ATOM     20  C   UNL     1     -33.138 -10.855  17.420  0.00  0.00    +0.125 A 
BRANCH  20  21
ATOM     21  O   UNL     1     -33.343 -10.837  18.811  0.00  0.00    -0.491 OA
BRANCH  21  22
ATOM     22  C   UNL     1     -34.086  -9.854  19.531  0.00  0.00    +0.232 C 
BRANCH  22  23
ATOM     23  C   UNL     1     -33.520  -9.687  20.946  0.00  0.00    +0.027 C 
ATOM     24  C   UNL     1     -34.082 -10.641  21.989  0.00  0.00    +0.007 C 
ATOM     25  C   UNL     1     -32.676 -10.850  21.445  0.00  0.00    +0.007 C 
ENDBRANCH  22  23
ENDBRANCH  21  22
ENDBRANCH  20  21
ENDBRANCH  14  15
ENDBRANCH   3  14
TORSDOF 7
ENDMDL
MODEL 6
REMARK VINA RESULT:    -4.034      2.147      5.177
REMARK INTER + INTRA:          -8.037
REMARK INTER:                  -6.102
REMARK INTRA:                  -1.935
REMARK UNBOUND:                -2.352
REMARK  Name = 
REMARK  7 active torsions:
REMARK  status: ('A' for Active; 'I' for Inactive)
REMARK    1  A    between atoms: C_2  and  C_16
REMARK    2  A    between atoms: N_3  and  C_4
REMARK    3  A    between atoms: C_4  and  C_5
REMARK    4  A    between atoms: C_10  and  O_11
REMARK    5  A    between atoms: O_11  and  C_12
REMARK    6  A    between atoms: C_12  and  C_13
REMARK    7  A    between atoms: C_18  and  C_19
REMARK                            x       y       z     vdW  Elec       q    Type
REMARK                         _______ _______ _______ _____ _____    ______ ____
ROOT
ATOM      1  O   UNL     1     -32.935 -13.398  16.819  0.00  0.00    -0.275 OA
ATOM      2  C   UNL     1     -31.805 -13.067  16.368  0.00  0.00    +0.217 C 
ATOM      3  N   UNL     1     -30.624 -13.311  17.141  0.00  0.00    -0.311 N 
ATOM      4  H   UNL     1     -29.694 -13.126  16.701  0.00  0.00    +0.149 HD
ENDROOT
BRANCH   2   5
ATOM      5  C   UNL     1     -31.686 -12.488  14.983  0.00  0.00    +0.083 C 
ATOM      6  C   UNL     1     -32.927 -11.748  14.498  0.00  0.00    +0.022 C 
ATOM      7  C   UNL     1     -31.662 -10.961  14.827  0.00  0.00    +0.033 C 
BRANCH   7   8
ATOM      8  C   UNL     1     -31.686 -10.128  16.088  0.00  0.00    -0.025 A 
ATOM      9  C   UNL     1     -32.913  -9.681  16.596  0.00  0.00    +0.007 A 
ATOM     10  C   UNL     1     -32.959  -8.973  17.798  0.00  0.00    +0.020 A 
ATOM     11  C   UNL     1     -31.775  -8.735  18.497  0.00  0.00    +0.111 A 
ATOM     12  N   UNL     1     -30.595  -9.209  18.015  0.00  0.00    -0.263 NA
ATOM     13  C   UNL     1     -30.524  -9.902  16.847  0.00  0.00    +0.114 A 
ENDBRANCH   7   8
ENDBRANCH   2   5
BRANCH   3  14
ATOM     14  C   UNL     1     -30.690 -13.898  18.478  0.00  0.00    +0.143 C 
BRANCH  14  15
ATOM     15  C   UNL     1     -30.584 -12.823  19.531  0.00  0.00    +0.011 A 
ATOM     16  C   UNL     1     -31.749 -12.384  20.180  0.00  0.00    +0.009 A 
ATOM     17  C   UNL     1     -31.678 -11.418  21.184  0.00  0.00    +0.001 A 
ATOM     18  C   UNL     1     -30.444 -10.890  21.559  0.00  0.00    +0.004 A 
ATOM     19  C   UNL     1     -29.274 -11.326  20.933  0.00  0.00    +0.046 A 
ATOM     20  C   UNL     1     -29.329 -12.298  19.913  0.00  0.00    +0.125 A 
BRANCH  20  21
ATOM     21  O   UNL     1     -28.171 -12.766  19.266  0.00  0.00    -0.491 OA
BRANCH  21  22
ATOM     22  C   UNL     1     -26.884 -12.912  19.864  0.00  0.00    +0.232 C 
BRANCH  22  23
ATOM     23  C   UNL     1     -26.764 -14.282  20.545  0.00  0.00    +0.027 C 
ATOM     24  C   UNL     1     -25.534 -14.470  21.418  0.00  0.00    +0.007 C 
ATOM     25  C   UNL     1     -26.898 -14.263  22.060  0.00  0.00    +0.007 C 
ENDBRANCH  22  23
ENDBRANCH  21  22
ENDBRANCH  20  21
ENDBRANCH  14  15
ENDBRANCH   3  14
TORSDOF 7
ENDMDL
MODEL 7
REMARK VINA RESULT:    -4.020      1.940      6.569
REMARK INTER + INTRA:          -8.017
REMARK INTER:                  -5.572
REMARK INTRA:                  -2.445
REMARK UNBOUND:                -2.352
REMARK  Name = 
REMARK  7 active torsions:
REMARK  status: ('A' for Active; 'I' for Inactive)
REMARK    1  A    between atoms: C_2  and  C_16
REMARK    2  A    between atoms: N_3  and  C_4
REMARK    3  A    between atoms: C_4  and  C_5
REMARK    4  A    between atoms: C_10  and  O_11
REMARK    5  A    between atoms: O_11  and  C_12
REMARK    6  A    between atoms: C_12  and  C_13
REMARK    7  A    between atoms: C_18  and  C_19
REMARK                            x       y       z     vdW  Elec       q    Type
REMARK                         _______ _______ _______ _____ _____    ______ ____
ROOT
ATOM      1  O   UNL     1     -30.543  -9.471  16.029  0.00  0.00    -0.275 OA
ATOM      2  C   UNL     1     -31.524  -9.858  16.722  0.00  0.00    +0.217 C 
ATOM      3  N   UNL     1     -31.402  -9.962  18.145  0.00  0.00    -0.311 N 
ATOM      4  H   UNL     1     -32.259 -10.181  18.703  0.00  0.00    +0.149 HD
ENDROOT
BRANCH   2   5
ATOM      5  C   UNL     1     -32.851 -10.133  16.062  0.00  0.00    +0.083 C 
ATOM      6  C   UNL     1     -32.751 -10.627  14.624  0.00  0.00    +0.022 C 
ATOM      7  C   UNL     1     -33.210 -11.586  15.719  0.00  0.00    +0.033 C 
BRANCH   7   8
ATOM      8  C   UNL     1     -32.237 -12.664  16.133  0.00  0.00    -0.025 A 
ATOM      9  C   UNL     1     -31.107 -12.915  15.341  0.00  0.00    +0.007 A 
ATOM     10  C   UNL     1     -30.161 -13.857  15.747  0.00  0.00    +0.020 A 
ATOM     11  C   UNL     1     -30.340 -14.529  16.956  0.00  0.00    +0.111 A 
ATOM     12  N   UNL     1     -31.418 -14.249  17.736  0.00  0.00    -0.263 NA
ATOM     13  C   UNL     1     -32.353 -13.334  17.363  0.00  0.00    +0.114 A 
ENDBRANCH   7   8
ENDBRANCH   2   5
BRANCH   3  14
ATOM     14  C   UNL     1     -30.142  -9.677  18.830  0.00  0.00    +0.143 C 
BRANCH  14  15
ATOM     15  C   UNL     1     -29.442 -10.960  19.199  0.00  0.00    +0.011 A 
ATOM     16  C   UNL     1     -28.172 -11.226  18.661  0.00  0.00    +0.009 A 
ATOM     17  C   UNL     1     -27.483 -12.387  19.013  0.00  0.00    +0.001 A 
ATOM     18  C   UNL     1     -28.047 -13.287  19.915  0.00  0.00    +0.004 A 
ATOM     19  C   UNL     1     -29.303 -13.031  20.470  0.00  0.00    +0.046 A 
ATOM     20  C   UNL     1     -30.015 -11.865  20.120  0.00  0.00    +0.125 A 
BRANCH  20  21
ATOM     21  O   UNL     1     -31.278 -11.572  20.664  0.00  0.00    -0.491 OA
BRANCH  21  22
ATOM     22  C   UNL     1     -31.522 -11.041  21.966  0.00  0.00    +0.232 C 
BRANCH  22  23
ATOM     23  C   UNL     1     -32.952 -10.496  22.062  0.00  0.00    +0.027 C 
ATOM     24  C   UNL     1     -33.200  -9.184  21.336  0.00  0.00    +0.007 C 
ATOM     25  C   UNL     1     -33.728 -10.487  20.753  0.00  0.00    +0.007 C 
ENDBRANCH  22  23
ENDBRANCH  21  22
ENDBRANCH  20  21
ENDBRANCH  14  15
ENDBRANCH   3  14
TORSDOF 7
ENDMDL
MODEL 8
REMARK VINA RESULT:    -3.955      1.854      4.635
REMARK INTER + INTRA:          -7.925
REMARK INTER:                  -6.696
REMARK INTRA:                  -1.229
REMARK UNBOUND:                -2.352
REMARK  Name = 
REMARK  7 active torsions:
REMARK  status: ('A' for Active; 'I' for Inactive)
REMARK    1  A    between atoms: C_2  and  C_16
REMARK    2  A    between atoms: N_3  and  C_4
REMARK    3  A    between atoms: C_4  and  C_5
REMARK    4  A    between atoms: C_10  and  O_11
REMARK    5  A    between atoms: O_11  and  C_12
REMARK    6  A    between atoms: C_12  and  C_13
REMARK    7  A    between atoms: C_18  and  C_19
REMARK                            x       y       z     vdW  Elec       q    Type
REMARK                         _______ _______ _______ _____ _____    ______ ____
ROOT
ATOM      1  O   UNL     1     -31.094 -13.721  19.558  0.00  0.00    -0.275 OA
ATOM      2  C   UNL     1     -30.510 -12.834  18.877  0.00  0.00    +0.217 C 
ATOM      3  N   UNL     1     -30.138 -13.100  17.520  0.00  0.00    -0.311 N 
ATOM      4  H   UNL     1     -29.753 -12.314  16.946  0.00  0.00    +0.149 HD
ENDROOT
BRANCH   2   5
ATOM      5  C   UNL     1     -30.275 -11.466  19.463  0.00  0.00    +0.083 C 
ATOM      6  C   UNL     1     -30.447 -11.389  20.976  0.00  0.00    +0.022 C 
ATOM      7  C   UNL     1     -29.052 -11.258  20.368  0.00  0.00    +0.033 C 
BRANCH   7   8
ATOM      8  C   UNL     1     -28.115 -12.427  20.557  0.00  0.00    -0.025 A 
ATOM      9  C   UNL     1     -28.258 -13.253  21.681  0.00  0.00    +0.007 A 
ATOM     10  C   UNL     1     -27.447 -14.378  21.833  0.00  0.00    +0.020 A 
ATOM     11  C   UNL     1     -26.510 -14.684  20.846  0.00  0.00    +0.111 A 
ATOM     12  N   UNL     1     -26.406 -13.899  19.741  0.00  0.00    -0.263 NA
ATOM     13  C   UNL     1     -27.186 -12.798  19.569  0.00  0.00    +0.114 A 
ENDBRANCH   7   8
ENDBRANCH   2   5
BRANCH   3  14
ATOM     14  C   UNL     1     -30.373 -14.403  16.900  0.00  0.00    +0.143 C 
BRANCH  14  15
ATOM     15  C   UNL     1     -30.158 -14.324  15.410  0.00  0.00    +0.011 A 
ATOM     16  C   UNL     1     -29.116 -15.062  14.829  0.00  0.00    +0.009 A 
ATOM     17  C   UNL     1     -28.916 -15.039  13.448  0.00  0.00    +0.001 A 
ATOM     18  C   UNL     1     -29.761 -14.289  12.632  0.00  0.00    +0.004 A 
ATOM     19  C   UNL     1     -30.812 -13.559  13.193  0.00  0.00    +0.046 A 
ATOM     20  C   UNL     1     -31.024 -13.568  14.588  0.00  0.00    +0.125 A 
BRANCH  20  21
ATOM     21  O   UNL     1     -32.076 -12.851  15.186  0.00  0.00    -0.491 OA
BRANCH  21  22
ATOM     22  C   UNL     1     -32.949 -11.941  14.518  0.00  0.00    +0.232 C 
BRANCH  22  23
ATOM     23  C   UNL     1     -32.946 -10.581  15.228  0.00  0.00    +0.027 C 
ATOM     24  C   UNL     1     -32.823 -10.636  16.742  0.00  0.00    +0.007 C 
ATOM     25  C   UNL     1     -31.633 -10.205  15.897  0.00  0.00    +0.007 C 
ENDBRANCH  22  23
ENDBRANCH  21  22
ENDBRANCH  20  21
ENDBRANCH  14  15
ENDBRANCH   3  14
TORSDOF 7
ENDMDL
MODEL 9
REMARK VINA RESULT:    -3.693      2.029      3.589
REMARK INTER + INTRA:          -7.556
REMARK INTER:                  -6.373
REMARK INTRA:                  -1.183
REMARK UNBOUND:                -2.352
REMARK  Name = 
REMARK  7 active torsions:
REMARK  status: ('A' for Active; 'I' for Inactive)
REMARK    1  A    between atoms: C_2  and  C_16
REMARK    2  A    between atoms: N_3  and  C_4
REMARK    3  A    between atoms: C_4  and  C_5
REMARK    4  A    between atoms: C_10  and  O_11
REMARK    5  A    between atoms: O_11  and  C_12
REMARK    6  A    between atoms: C_12  and  C_13
REMARK    7  A    between atoms: C_18  and  C_19
REMARK                            x       y       z     vdW  Elec       q    Type
REMARK                         _______ _______ _______ _____ _____    ______ ____
ROOT
ATOM      1  O   UNL     1     -30.552  -9.177  17.428  0.00  0.00    -0.275 OA
ATOM      2  C   UNL     1     -31.739  -9.598  17.499  0.00  0.00    +0.217 C 
ATOM      3  N   UNL     1     -32.226 -10.539  16.535  0.00  0.00    -0.311 N 
ATOM      4  H   UNL     1     -33.176 -10.952  16.679  0.00  0.00    +0.149 HD
ENDROOT
BRANCH   2   5
ATOM      5  C   UNL     1     -32.622  -9.174  18.644  0.00  0.00    +0.083 C 
ATOM      6  C   UNL     1     -33.697 -10.187  19.021  0.00  0.00    +0.022 C 
ATOM      7  C   UNL     1     -32.524  -9.946  19.967  0.00  0.00    +0.033 C 
BRANCH   7   8
ATOM      8  C   UNL     1     -31.489 -11.042  20.063  0.00  0.00    -0.025 A 
ATOM      9  C   UNL     1     -30.228 -10.756  20.604  0.00  0.00    +0.007 A 
ATOM     10  C   UNL     1     -29.287 -11.774  20.767  0.00  0.00    +0.020 A 
ATOM     11  C   UNL     1     -29.622 -13.079  20.406  0.00  0.00    +0.111 A 
ATOM     12  N   UNL     1     -30.862 -13.353  19.920  0.00  0.00    -0.263 NA
ATOM     13  C   UNL     1     -31.797 -12.379  19.753  0.00  0.00    +0.114 A 
ENDBRANCH   7   8
ENDBRANCH   2   5
BRANCH   3  14
ATOM     14  C   UNL     1     -31.394 -11.000  15.425  0.00  0.00    +0.143 C 
BRANCH  14  15
ATOM     15  C   UNL     1     -32.248 -11.641  14.359  0.00  0.00    +0.011 A 
ATOM     16  C   UNL     1     -33.513 -11.102  14.080  0.00  0.00    +0.009 A 
ATOM     17  C   UNL     1     -34.310 -11.650  13.074  0.00  0.00    +0.001 A 
ATOM     18  C   UNL     1     -33.847 -12.733  12.329  0.00  0.00    +0.004 A 
ATOM     19  C   UNL     1     -32.585 -13.272  12.585  0.00  0.00    +0.046 A 
ATOM     20  C   UNL     1     -31.769 -12.733  13.602  0.00  0.00    +0.125 A 
BRANCH  20  21
ATOM     21  O   UNL     1     -30.490 -13.247  13.882  0.00  0.00    -0.491 OA
BRANCH  21  22
ATOM     22  C   UNL     1     -30.121 -14.625  13.854  0.00  0.00    +0.232 C 
BRANCH  22  23
ATOM     23  C   UNL     1     -29.585 -15.062  15.223  0.00  0.00    +0.027 C 
ATOM     24  C   UNL     1     -29.105 -13.936  16.124  0.00  0.00    +0.007 C 
ATOM     25  C   UNL     1     -30.428 -14.631  16.413  0.00  0.00    +0.007 C 
ENDBRANCH  22  23
ENDBRANCH  21  22
ENDBRANCH  20  21
ENDBRANCH  14  15
ENDBRANCH   3  14
TORSDOF 7
ENDMDL
