MODEL 1
REMARK VINA RESULT:    -5.194      0.000      0.000
REMARK INTER + INTRA:          -9.352
REMARK INTER:                  -7.017
REMARK INTRA:                  -2.335
REMARK UNBOUND:                -2.335
REMARK  Name = 
REMARK  9 active torsions:
REMARK  status: ('A' for Active; 'I' for Inactive)
REMARK    1  A    between atoms: C_1  and  C_2
REMARK    2  A    between atoms: C_6  and  C_9
REMARK    3  A    between atoms: C_7  and  C_8
REMARK    4  A    between atoms: C_9  and  C_10
REMARK    5  A    between atoms: C_9  and  N_11
REMARK    6  A    between atoms: C_12  and  C_14
REMARK    7  A    between atoms: C_19  and  O_20
REMARK    8  A    between atoms: O_20  and  C_21
REMARK    9  A    between atoms: C_21  and  C_22
REMARK                            x       y       z     vdW  Elec       q    Type
REMARK                         _______ _______ _______ _____ _____    ______ ____
ROOT
ATOM      1  N   UNL     1     -31.290 -11.516  16.551  0.00  0.00    -0.305 N 
ATOM      2  C   UNL     1     -32.604 -11.835  16.069  0.00  0.00    +0.248 C 
ATOM      3  O   UNL     1     -33.575 -11.876  16.873  0.00  0.00    -0.270 OA
ATOM      4  H   UNL     1     -30.468 -11.737  15.944  0.00  0.00    +0.150 HD
ENDROOT
BRANCH   2   5
ATOM      5  C   UNL     1     -32.831 -12.152  14.640  0.00  0.00    +0.078 A 
ATOM      6  C   UNL     1     -34.035 -11.753  14.033  0.00  0.00    +0.017 A 
ATOM      7  C   UNL     1     -34.285 -12.043  12.692  0.00  0.00    +0.001 A 
ATOM      8  C   UNL     1     -33.334 -12.730  11.938  0.00  0.00    +0.004 A 
ATOM      9  C   UNL     1     -32.126 -13.118  12.518  0.00  0.00    +0.046 A 
ATOM     10  C   UNL     1     -31.853 -12.825  13.870  0.00  0.00    +0.133 A 
BRANCH  10  11
ATOM     11  O   UNL     1     -30.624 -13.160  14.468  0.00  0.00    -0.482 OA
BRANCH  11  12
ATOM     12  C   UNL     1     -30.165 -14.482  14.744  0.00  0.00    +0.324 C 
BRANCH  12  13
ATOM     13  C   UNL     1     -29.428 -14.523  16.049  0.00  0.00    +0.248 C 
ATOM     14  N   UNL     1     -30.104 -14.878  17.255  0.00  0.00    -0.327 N 
ATOM     15  O   UNL     1     -28.207 -14.213  16.086  0.00  0.00    -0.272 OA
ATOM     16  H   UNL     1     -31.120 -15.120  17.247  0.00  0.00    +0.145 HD
ATOM     17  H   UNL     1     -29.587 -14.897  18.162  0.00  0.00    +0.145 HD
ENDBRANCH  12  13
ENDBRANCH  11  12
ENDBRANCH  10  11
ENDBRANCH   2   5
BRANCH   1  18
ATOM     18  C   UNL     1     -31.060 -10.922  17.872  0.00  0.00    +0.101 C 
ATOM     19  C   UNL     1     -31.088  -9.388  17.775  0.00  0.00    +0.033 C 
BRANCH  18  25
ATOM     20  C   UNL     1     -28.410 -13.638  21.350  0.00  0.00    +0.044 C 
ATOM     21  C   UNL     1     -28.497 -12.767  20.121  0.00  0.00    -0.047 A 
ATOM     22  C   UNL     1     -27.303 -12.393  19.486  0.00  0.00    +0.003 A 
ATOM     23  C   UNL     1     -27.325 -11.598  18.347  0.00  0.00    +0.001 A 
ATOM     24  C   UNL     1     -28.534 -11.138  17.838  0.00  0.00    +0.006 A 
ATOM     25  C   UNL     1     -29.755 -11.456  18.465  0.00  0.00    -0.024 A 
ATOM     26  C   UNL     1     -29.744 -12.348  19.579  0.00  0.00    -0.043 A 
ATOM     27  C   UNL     1     -31.046 -12.820  20.195  0.00  0.00    +0.044 C 
ENDBRANCH  18  25
ENDBRANCH   1  18
TORSDOF 6
ENDMDL
MODEL 2
REMARK VINA RESULT:    -4.472      1.985      3.326
REMARK INTER + INTRA:          -8.376
REMARK INTER:                  -6.218
REMARK INTRA:                  -2.158
REMARK UNBOUND:                -2.335
REMARK  Name = 
REMARK  9 active torsions:
REMARK  status: ('A' for Active; 'I' for Inactive)
REMARK    1  A    between atoms: C_1  and  C_2
REMARK    2  A    between atoms: C_6  and  C_9
REMARK    3  A    between atoms: C_7  and  C_8
REMARK    4  A    between atoms: C_9  and  C_10
REMARK    5  A    between atoms: C_9  and  N_11
REMARK    6  A    between atoms: C_12  and  C_14
REMARK    7  A    between atoms: C_19  and  O_20
REMARK    8  A    between atoms: O_20  and  C_21
REMARK    9  A    between atoms: C_21  and  C_22
REMARK                            x       y       z     vdW  Elec       q    Type
REMARK                         _______ _______ _______ _____ _____    ______ ____
ROOT
ATOM      1  N   UNL     1     -31.700 -11.106  16.382  0.00  0.00    -0.305 N 
ATOM      2  C   UNL     1     -32.507 -10.738  15.253  0.00  0.00    +0.248 C 
ATOM      3  O   UNL     1     -33.098  -9.624  15.239  0.00  0.00    -0.270 OA
ATOM      4  H   UNL     1     -31.436 -12.111  16.501  0.00  0.00    +0.150 HD
ENDROOT
BRANCH   2   5
ATOM      5  C   UNL     1     -32.683 -11.667  14.113  0.00  0.00    +0.078 A 
ATOM      6  C   UNL     1     -33.770 -11.481  13.240  0.00  0.00    +0.017 A 
ATOM      7  C   UNL     1     -33.971 -12.344  12.162  0.00  0.00    +0.001 A 
ATOM      8  C   UNL     1     -33.087 -13.398  11.938  0.00  0.00    +0.004 A 
ATOM      9  C   UNL     1     -31.993 -13.588  12.783  0.00  0.00    +0.046 A 
ATOM     10  C   UNL     1     -31.770 -12.720  13.872  0.00  0.00    +0.133 A 
BRANCH  10  11
ATOM     11  O   UNL     1     -30.648 -12.858  14.711  0.00  0.00    -0.482 OA
BRANCH  11  12
ATOM     12  C   UNL     1     -30.182 -14.077  15.288  0.00  0.00    +0.324 C 
BRANCH  12  13
ATOM     13  C   UNL     1     -30.780 -14.280  16.647  0.00  0.00    +0.248 C 
ATOM     14  N   UNL     1     -29.998 -14.823  17.711  0.00  0.00    -0.327 N 
ATOM     15  O   UNL     1     -31.991 -13.996  16.845  0.00  0.00    -0.272 OA
ATOM     16  H   UNL     1     -28.997 -15.082  17.561  0.00  0.00    +0.145 HD
ATOM     17  H   UNL     1     -30.422 -14.970  18.654  0.00  0.00    +0.145 HD
ENDBRANCH  12  13
ENDBRANCH  11  12
ENDBRANCH  10  11
ENDBRANCH   2   5
BRANCH   1  18
ATOM     18  C   UNL     1     -31.263 -10.130  17.386  0.00  0.00    +0.101 C 
ATOM     19  C   UNL     1     -29.732 -10.154  17.516  0.00  0.00    +0.033 C 
BRANCH  18  25
ATOM     20  C   UNL     1     -34.288  -8.699  21.297  0.00  0.00    +0.044 C 
ATOM     21  C   UNL     1     -33.434  -9.707  20.571  0.00  0.00    -0.047 A 
ATOM     22  C   UNL     1     -33.250 -10.968  21.160  0.00  0.00    +0.003 A 
ATOM     23  C   UNL     1     -32.478 -11.938  20.532  0.00  0.00    +0.001 A 
ATOM     24  C   UNL     1     -31.852 -11.659  19.322  0.00  0.00    +0.006 A 
ATOM     25  C   UNL     1     -31.976 -10.393  18.714  0.00  0.00    -0.024 A 
ATOM     26  C   UNL     1     -32.842  -9.427  19.308  0.00  0.00    -0.043 A 
ATOM     27  C   UNL     1     -33.107  -8.106  18.613  0.00  0.00    +0.044 C 
ENDBRANCH  18  25
ENDBRANCH   1  18
TORSDOF 6
ENDMDL
MODEL 3
REMARK VINA RESULT:    -4.393      2.266      5.916
REMARK INTER + INTRA:          -8.270
REMARK INTER:                  -6.324
REMARK INTRA:                  -1.946
REMARK UNBOUND:                -2.335
REMARK  Name = 
REMARK  9 active torsions:
REMARK  status: ('A' for Active; 'I' for Inactive)
REMARK    1  A    between atoms: C_1  and  C_2
REMARK    2  A    between atoms: C_6  and  C_9
REMARK    3  A    between atoms: C_7  and  C_8
REMARK    4  A    between atoms: C_9  and  C_10
REMARK    5  A    between atoms: C_9  and  N_11
REMARK    6  A    between atoms: C_12  and  C_14
REMARK    7  A    between atoms: C_19  and  O_20
REMARK    8  A    between atoms: O_20  and  C_21
REMARK    9  A    between atoms: C_21  and  C_22
REMARK                            x       y       z     vdW  Elec       q    Type
REMARK                         _______ _______ _______ _____ _____    ______ ____
ROOT
ATOM      1  N   UNL     1     -31.754 -10.982  16.867  0.00  0.00    -0.305 N 
ATOM      2  C   UNL     1     -32.106  -9.609  17.096  0.00  0.00    +0.248 C 
ATOM      3  O   UNL     1     -32.663  -8.942  16.181  0.00  0.00    -0.270 OA
ATOM      4  H   UNL     1     -31.073 -11.438  17.517  0.00  0.00    +0.150 HD
ENDROOT
BRANCH   2   5
ATOM      5  C   UNL     1     -31.793  -8.952  18.386  0.00  0.00    +0.078 A 
ATOM      6  C   UNL     1     -32.543  -7.831  18.783  0.00  0.00    +0.017 A 
ATOM      7  C   UNL     1     -32.268  -7.182  19.987  0.00  0.00    +0.001 A 
ATOM      8  C   UNL     1     -31.246  -7.647  20.813  0.00  0.00    +0.004 A 
ATOM      9  C   UNL     1     -30.501  -8.769  20.443  0.00  0.00    +0.046 A 
ATOM     10  C   UNL     1     -30.772  -9.442  19.234  0.00  0.00    +0.133 A 
BRANCH  10  11
ATOM     11  O   UNL     1     -30.071 -10.604  18.861  0.00  0.00    -0.482 OA
BRANCH  11  12
ATOM     12  C   UNL     1     -29.720 -11.681  19.728  0.00  0.00    +0.324 C 
BRANCH  12  13
ATOM     13  C   UNL     1     -30.842 -12.670  19.822  0.00  0.00    +0.248 C 
ATOM     14  N   UNL     1     -30.635 -13.949  20.421  0.00  0.00    -0.327 N 
ATOM     15  O   UNL     1     -31.970 -12.382  19.340  0.00  0.00    -0.272 OA
ATOM     16  H   UNL     1     -29.702 -14.214  20.809  0.00  0.00    +0.145 HD
ATOM     17  H   UNL     1     -31.419 -14.637  20.476  0.00  0.00    +0.145 HD
ENDBRANCH  12  13
ENDBRANCH  11  12
ENDBRANCH  10  11
ENDBRANCH   2   5
BRANCH   1  18
ATOM     18  C   UNL     1     -32.289 -11.753  15.740  0.00  0.00    +0.101 C 
ATOM     19  C   UNL     1     -33.673 -12.319  16.096  0.00  0.00    +0.033 C 
BRANCH  18  25
ATOM     20  C   UNL     1     -30.174 -14.925  12.282  0.00  0.00    +0.044 C 
ATOM     21  C   UNL     1     -30.276 -14.339  13.668  0.00  0.00    -0.047 A 
ATOM     22  C   UNL     1     -29.420 -14.835  14.663  0.00  0.00    +0.003 A 
ATOM     23  C   UNL     1     -29.467 -14.327  15.955  0.00  0.00    +0.001 A 
ATOM     24  C   UNL     1     -30.386 -13.337  16.286  0.00  0.00    +0.006 A 
ATOM     25  C   UNL     1     -31.291 -12.837  15.328  0.00  0.00    -0.024 A 
ATOM     26  C   UNL     1     -31.185 -13.289  13.979  0.00  0.00    -0.043 A 
ATOM     27  C   UNL     1     -32.049 -12.676  12.896  0.00  0.00    +0.044 C 
ENDBRANCH  18  25
ENDBRANCH   1  18
TORSDOF 6
ENDMDL
MODEL 4
REMARK VINA RESULT:    -3.897      2.497      4.021
REMARK INTER + INTRA:          -7.599
REMARK INTER:                  -5.979
REMARK INTRA:                  -1.620
REMARK UNBOUND:                -2.335
REMARK  Name = 
REMARK  9 active torsions:
REMARK  status: ('A' for Active; 'I' for Inactive)
REMARK    1  A    between atoms: C_1  and  C_2
REMARK    2  A    between atoms: C_6  and  C_9
REMARK    3  A    between atoms: C_7  and  C_8
REMARK    4  A    between atoms: C_9  and  C_10
REMARK    5  A    between atoms: C_9  and  N_11
REMARK    6  A    between atoms: C_12  and  C_14
REMARK    7  A    between atoms: C_19  and  O_20
REMARK    8  A    between atoms: O_20  and  C_21
REMARK    9  A    between atoms: C_21  and  C_22
REMARK                            x       y       z     vdW  Elec       q    Type
REMARK                         _______ _______ _______ _____ _____    ______ ____
ROOT
ATOM      1  N   UNL     1     -32.737 -11.556  16.798  0.00  0.00    -0.305 N 
ATOM      2  C   UNL     1     -32.035 -11.224  15.590  0.00  0.00    +0.248 C 
ATOM      3  O   UNL     1     -31.199 -10.279  15.588  0.00  0.00    -0.270 OA
ATOM      4  H   UNL     1     -33.596 -12.148  16.730  0.00  0.00    +0.150 HD
ENDROOT
BRANCH   2   5
ATOM      5  C   UNL     1     -32.305 -11.956  14.331  0.00  0.00    +0.078 A 
ATOM      6  C   UNL     1     -33.401 -11.572  13.538  0.00  0.00    +0.017 A 
ATOM      7  C   UNL     1     -33.690 -12.246  12.351  0.00  0.00    +0.001 A 
ATOM      8  C   UNL     1     -32.885 -13.307  11.938  0.00  0.00    +0.004 A 
ATOM      9  C   UNL     1     -31.783 -13.691  12.703  0.00  0.00    +0.046 A 
ATOM     10  C   UNL     1     -31.471 -13.014  13.900  0.00  0.00    +0.133 A 
BRANCH  10  11
ATOM     11  O   UNL     1     -30.338 -13.347  14.666  0.00  0.00    -0.482 OA
BRANCH  11  12
ATOM     12  C   UNL     1     -30.122 -14.585  15.340  0.00  0.00    +0.324 C 
BRANCH  12  13
ATOM     13  C   UNL     1     -30.714 -14.548  16.716  0.00  0.00    +0.248 C 
ATOM     14  N   UNL     1     -29.879 -14.636  17.871  0.00  0.00    -0.327 N 
ATOM     15  O   UNL     1     -31.964 -14.467  16.855  0.00  0.00    -0.272 OA
ATOM     16  H   UNL     1     -28.843 -14.722  17.776  0.00  0.00    +0.145 HD
ATOM     17  H   UNL     1     -30.299 -14.617  18.826  0.00  0.00    +0.145 HD
ENDBRANCH  12  13
ENDBRANCH  11  12
ENDBRANCH  10  11
ENDBRANCH   2   5
BRANCH   1  18
ATOM     18  C   UNL     1     -32.309 -11.069  18.114  0.00  0.00    +0.101 C 
ATOM     19  C   UNL     1     -32.680 -12.089  19.202  0.00  0.00    +0.033 C 
BRANCH  18  25
ATOM     20  C   UNL     1     -32.083  -6.315  20.073  0.00  0.00    +0.044 C 
ATOM     21  C   UNL     1     -32.778  -7.408  19.300  0.00  0.00    -0.047 A 
ATOM     22  C   UNL     1     -34.066  -7.155  18.805  0.00  0.00    +0.003 A 
ATOM     23  C   UNL     1     -34.750  -8.124  18.080  0.00  0.00    +0.001 A 
ATOM     24  C   UNL     1     -34.175  -9.370  17.862  0.00  0.00    +0.006 A 
ATOM     25  C   UNL     1     -32.899  -9.682  18.374  0.00  0.00    -0.024 A 
ATOM     26  C   UNL     1     -32.156  -8.660  19.038  0.00  0.00    -0.043 A 
ATOM     27  C   UNL     1     -30.730  -8.916  19.483  0.00  0.00    +0.044 C 
ENDBRANCH  18  25
ENDBRANCH   1  18
TORSDOF 6
ENDMDL
MODEL 5
REMARK VINA RESULT:    -3.897      2.051      5.995
REMARK INTER + INTRA:          -7.598
REMARK INTER:                  -5.965
REMARK INTRA:                  -1.633
REMARK UNBOUND:                -2.335
REMARK  Name = 
REMARK  9 active torsions:
REMARK  status: ('A' for Active; 'I' for Inactive)
REMARK    1  A    between atoms: C_1  and  C_2
REMARK    2  A    between atoms: C_6  and  C_9
REMARK    3  A    between atoms: C_7  and  C_8
REMARK    4  A    between atoms: C_9  and  C_10
REMARK    5  A    between atoms: C_9  and  N_11
REMARK    6  A    between atoms: C_12  and  C_14
REMARK    7  A    between atoms: C_19  and  O_20
REMARK    8  A    between atoms: O_20  and  C_21
REMARK    9  A    between atoms: C_21  and  C_22
REMARK                            x       y       z     vdW  Elec       q    Type
REMARK                         _______ _______ _______ _____ _____    ______ ____
ROOT
ATOM      1  N   UNL     1     -31.394 -12.231  17.528  0.00  0.00    -0.305 N 
ATOM      2  C   UNL     1     -32.299 -11.329  18.185  0.00  0.00    +0.248 C 
ATOM      3  O   UNL     1     -33.544 -11.486  18.060  0.00  0.00    -0.270 OA
ATOM      4  H   UNL     1     -30.394 -11.945  17.422  0.00  0.00    +0.150 HD
ENDROOT
BRANCH   2   5
ATOM      5  C   UNL     1     -31.787 -10.191  18.983  0.00  0.00    +0.078 A 
ATOM      6  C   UNL     1     -32.468  -8.962  18.936  0.00  0.00    +0.017 A 
ATOM      7  C   UNL     1     -32.009  -7.866  19.669  0.00  0.00    +0.001 A 
ATOM      8  C   UNL     1     -30.868  -7.986  20.461  0.00  0.00    +0.004 A 
ATOM      9  C   UNL     1     -30.189  -9.203  20.533  0.00  0.00    +0.046 A 
ATOM     10  C   UNL     1     -30.645 -10.323  19.807  0.00  0.00    +0.133 A 
BRANCH  10  11
ATOM     11  O   UNL     1     -30.009 -11.575  19.900  0.00  0.00    -0.482 OA
BRANCH  11  12
ATOM     12  C   UNL     1     -28.614 -11.788  20.110  0.00  0.00    +0.324 C 
BRANCH  12  13
ATOM     13  C   UNL     1     -28.163 -13.042  19.423  0.00  0.00    +0.248 C 
ATOM     14  N   UNL     1     -28.344 -14.315  20.042  0.00  0.00    -0.327 N 
ATOM     15  O   UNL     1     -27.592 -12.968  18.302  0.00  0.00    -0.272 OA
ATOM     16  H   UNL     1     -28.798 -14.395  20.979  0.00  0.00    +0.145 HD
ATOM     17  H   UNL     1     -28.020 -15.184  19.562  0.00  0.00    +0.145 HD
ENDBRANCH  12  13
ENDBRANCH  11  12
ENDBRANCH  10  11
ENDBRANCH   2   5
BRANCH   1  18
ATOM     18  C   UNL     1     -31.831 -13.517  16.976  0.00  0.00    +0.101 C 
ATOM     19  C   UNL     1     -31.326 -14.670  17.858  0.00  0.00    +0.033 C 
BRANCH  18  25
ATOM     20  C   UNL     1     -32.396 -12.631  11.938  0.00  0.00    +0.044 C 
ATOM     21  C   UNL     1     -31.647 -13.201  13.116  0.00  0.00    -0.047 A 
ATOM     22  C   UNL     1     -30.469 -13.921  12.869  0.00  0.00    +0.003 A 
ATOM     23  C   UNL     1     -29.736 -14.462  13.918  0.00  0.00    +0.001 A 
ATOM     24  C   UNL     1     -30.180 -14.322  15.228  0.00  0.00    +0.006 A 
ATOM     25  C   UNL     1     -31.379 -13.641  15.520  0.00  0.00    -0.024 A 
ATOM     26  C   UNL     1     -32.085 -13.004  14.456  0.00  0.00    -0.043 A 
ATOM     27  C   UNL     1     -33.302 -12.150  14.748  0.00  0.00    +0.044 C 
ENDBRANCH  18  25
ENDBRANCH   1  18
TORSDOF 6
ENDMDL
MODEL 6
REMARK VINA RESULT:    -3.866      1.657      3.683
REMARK INTER + INTRA:          -7.557
REMARK INTER:                  -5.622
REMARK INTRA:                  -1.936
REMARK UNBOUND:                -2.335
REMARK  Name = 
REMARK  9 active torsions:
REMARK  status: ('A' for Active; 'I' for Inactive)
REMARK    1  A    between atoms: C_1  and  C_2
REMARK    2  A    between atoms: C_6  and  C_9
REMARK    3  A    between atoms: C_7  and  C_8
REMARK    4  A    between atoms: C_9  and  C_10
REMARK    5  A    between atoms: C_9  and  N_11
REMARK    6  A    between atoms: C_12  and  C_14
REMARK    7  A    between atoms: C_19  and  O_20
REMARK    8  A    between atoms: O_20  and  C_21
REMARK    9  A    between atoms: C_21  and  C_22
REMARK                            x       y       z     vdW  Elec       q    Type
REMARK                         _______ _______ _______ _____ _____    ______ ____
ROOT
ATOM      1  N   UNL     1     -31.310 -12.572  16.440  0.00  0.00    -0.305 N 
ATOM      2  C   UNL     1     -31.238 -12.945  15.055  0.00  0.00    +0.248 C 
ATOM      3  O   UNL     1     -30.234 -13.577  14.625  0.00  0.00    -0.270 OA
ATOM      4  H   UNL     1     -31.999 -11.839  16.725  0.00  0.00    +0.150 HD
ENDROOT
BRANCH   2   5
ATOM      5  C   UNL     1     -32.315 -12.565  14.112  0.00  0.00    +0.078 A 
ATOM      6  C   UNL     1     -32.374 -13.189  12.853  0.00  0.00    +0.017 A 
ATOM      7  C   UNL     1     -33.370 -12.849  11.937  0.00  0.00    +0.001 A 
ATOM      8  C   UNL     1     -34.323 -11.887  12.268  0.00  0.00    +0.004 A 
ATOM      9  C   UNL     1     -34.292 -11.270  13.521  0.00  0.00    +0.046 A 
ATOM     10  C   UNL     1     -33.297 -11.609  14.461  0.00  0.00    +0.133 A 
BRANCH  10  11
ATOM     11  O   UNL     1     -33.271 -11.040  15.748  0.00  0.00    -0.482 OA
BRANCH  11  12
ATOM     12  C   UNL     1     -33.248  -9.644  16.042  0.00  0.00    +0.324 C 
BRANCH  12  13
ATOM     13  C   UNL     1     -32.021  -9.290  16.826  0.00  0.00    +0.248 C 
ATOM     14  N   UNL     1     -32.101  -8.403  17.942  0.00  0.00    -0.327 N 
ATOM     15  O   UNL     1     -30.902  -9.756  16.479  0.00  0.00    -0.272 OA
ATOM     16  H   UNL     1     -33.016  -7.992  18.234  0.00  0.00    +0.145 HD
ATOM     17  H   UNL     1     -31.241  -8.154  18.479  0.00  0.00    +0.145 HD
ENDBRANCH  12  13
ENDBRANCH  11  12
ENDBRANCH  10  11
ENDBRANCH   2   5
BRANCH   1  18
ATOM     18  C   UNL     1     -30.431 -13.159  17.457  0.00  0.00    +0.101 C 
ATOM     19  C   UNL     1     -30.567 -14.690  17.455  0.00  0.00    +0.033 C 
BRANCH  18  25
ATOM     20  C   UNL     1     -28.984 -11.371  22.063  0.00  0.00    +0.044 C 
ATOM     21  C   UNL     1     -30.028 -11.673  21.016  0.00  0.00    -0.047 A 
ATOM     22  C   UNL     1     -31.370 -11.395  21.317  0.00  0.00    +0.003 A 
ATOM     23  C   UNL     1     -32.371 -11.646  20.387  0.00  0.00    +0.001 A 
ATOM     24  C   UNL     1     -32.057 -12.206  19.154  0.00  0.00    +0.006 A 
ATOM     25  C   UNL     1     -30.728 -12.538  18.824  0.00  0.00    -0.024 A 
ATOM     26  C   UNL     1     -29.686 -12.196  19.737  0.00  0.00    -0.043 A 
ATOM     27  C   UNL     1     -28.235 -12.413  19.361  0.00  0.00    +0.044 C 
ENDBRANCH  18  25
ENDBRANCH   1  18
TORSDOF 6
ENDMDL
MODEL 7
REMARK VINA RESULT:    -3.848      2.357      6.348
REMARK INTER + INTRA:          -7.533
REMARK INTER:                  -6.297
REMARK INTRA:                  -1.237
REMARK UNBOUND:                -2.335
REMARK  Name = 
REMARK  9 active torsions:
REMARK  status: ('A' for Active; 'I' for Inactive)
REMARK    1  A    between atoms: C_1  and  C_2
REMARK    2  A    between atoms: C_6  and  C_9
REMARK    3  A    between atoms: C_7  and  C_8
REMARK    4  A    between atoms: C_9  and  C_10
REMARK    5  A    between atoms: C_9  and  N_11
REMARK    6  A    between atoms: C_12  and  C_14
REMARK    7  A    between atoms: C_19  and  O_20
REMARK    8  A    between atoms: O_20  and  C_21
REMARK    9  A    between atoms: C_21  and  C_22
REMARK                            x       y       z     vdW  Elec       q    Type
REMARK                         _______ _______ _______ _____ _____    ______ ____
ROOT
ATOM      1  N   UNL     1     -33.243 -10.467  16.595  0.00  0.00    -0.305 N 
ATOM      2  C   UNL     1     -32.462  -9.858  17.635  0.00  0.00    +0.248 C 
ATOM      3  O   UNL     1     -31.553  -9.035  17.339  0.00  0.00    -0.270 OA
ATOM      4  H   UNL     1     -33.799 -11.323  16.823  0.00  0.00    +0.150 HD
ENDROOT
BRANCH   2   5
ATOM      5  C   UNL     1     -32.686 -10.212  19.055  0.00  0.00    +0.078 A 
ATOM      6  C   UNL     1     -33.800  -9.676  19.727  0.00  0.00    +0.017 A 
ATOM      7  C   UNL     1     -34.036  -9.981  21.067  0.00  0.00    +0.001 A 
ATOM      8  C   UNL     1     -33.168 -10.829  21.753  0.00  0.00    +0.004 A 
ATOM      9  C   UNL     1     -32.067 -11.385  21.099  0.00  0.00    +0.046 A 
ATOM     10  C   UNL     1     -31.819 -11.094  19.741  0.00  0.00    +0.133 A 
BRANCH  10  11
ATOM     11  O   UNL     1     -30.746 -11.679  19.043  0.00  0.00    -0.482 OA
BRANCH  11  12
ATOM     12  C   UNL     1     -29.406 -11.795  19.519  0.00  0.00    +0.324 C 
BRANCH  12  13
ATOM     13  C   UNL     1     -28.461 -11.057  18.620  0.00  0.00    +0.248 C 
ATOM     14  N   UNL     1     -28.954 -10.156  17.629  0.00  0.00    -0.327 N 
ATOM     15  O   UNL     1     -27.221 -11.255  18.721  0.00  0.00    -0.272 OA
ATOM     16  H   UNL     1     -29.980  -9.993  17.517  0.00  0.00    +0.145 HD
ATOM     17  H   UNL     1     -28.291  -9.651  17.000  0.00  0.00    +0.145 HD
ENDBRANCH  12  13
ENDBRANCH  11  12
ENDBRANCH  10  11
ENDBRANCH   2   5
BRANCH   1  18
ATOM     18  C   UNL     1     -33.262  -9.950  15.222  0.00  0.00    +0.101 C 
ATOM     19  C   UNL     1     -34.487  -9.046  15.014  0.00  0.00    +0.033 C 
BRANCH  18  25
ATOM     20  C   UNL     1     -30.917 -13.998  13.075  0.00  0.00    +0.044 C 
ATOM     21  C   UNL     1     -32.082 -13.051  13.216  0.00  0.00    -0.047 A 
ATOM     22  C   UNL     1     -33.181 -13.219  12.360  0.00  0.00    +0.003 A 
ATOM     23  C   UNL     1     -34.285 -12.380  12.450  0.00  0.00    +0.001 A 
ATOM     24  C   UNL     1     -34.300 -11.340  13.374  0.00  0.00    +0.006 A 
ATOM     25  C   UNL     1     -33.202 -11.110  14.227  0.00  0.00    -0.024 A 
ATOM     26  C   UNL     1     -32.107 -12.025  14.202  0.00  0.00    -0.043 A 
ATOM     27  C   UNL     1     -30.972 -11.888  15.196  0.00  0.00    +0.044 C 
ENDBRANCH  18  25
ENDBRANCH   1  18
TORSDOF 6
ENDMDL
MODEL 8
REMARK VINA RESULT:    -3.774      2.072      6.846
REMARK INTER + INTRA:          -7.432
REMARK INTER:                  -6.369
REMARK INTRA:                  -1.063
REMARK UNBOUND:                -2.335
REMARK  Name = 
REMARK  9 active torsions:
REMARK  status: ('A' for Active; 'I' for Inactive)
REMARK    1  A    between atoms: C_1  and  C_2
REMARK    2  A    between atoms: C_6  and  C_9
REMARK    3  A    between atoms: C_7  and  C_8
REMARK    4  A    between atoms: C_9  and  C_10
REMARK    5  A    between atoms: C_9  and  N_11
REMARK    6  A    between atoms: C_12  and  C_14
REMARK    7  A    between atoms: C_19  and  O_20
REMARK    8  A    between atoms: O_20  and  C_21
REMARK    9  A    between atoms: C_21  and  C_22
REMARK                            x       y       z     vdW  Elec       q    Type
REMARK                         _______ _______ _______ _____ _____    ______ ____
ROOT
ATOM      1  N   UNL     1     -31.308 -11.398  16.495  0.00  0.00    -0.305 N 
ATOM      2  C   UNL     1     -30.174 -11.026  17.293  0.00  0.00    +0.248 C 
ATOM      3  O   UNL     1     -29.501 -10.003  16.991  0.00  0.00    -0.270 OA
ATOM      4  H   UNL     1     -31.691 -12.366  16.591  0.00  0.00    +0.150 HD
ENDROOT
BRANCH   2   5
ATOM      5  C   UNL     1     -29.760 -11.851  18.452  0.00  0.00    +0.078 A 
ATOM      6  C   UNL     1     -28.393 -12.107  18.657  0.00  0.00    +0.017 A 
ATOM      7  C   UNL     1     -27.969 -12.887  19.733  0.00  0.00    +0.001 A 
ATOM      8  C   UNL     1     -28.904 -13.417  20.622  0.00  0.00    +0.004 A 
ATOM      9  C   UNL     1     -30.264 -13.158  20.445  0.00  0.00    +0.046 A 
ATOM     10  C   UNL     1     -30.709 -12.364  19.368  0.00  0.00    +0.133 A 
BRANCH  10  11
ATOM     11  O   UNL     1     -32.069 -12.047  19.194  0.00  0.00    -0.482 OA
BRANCH  11  12
ATOM     12  C   UNL     1     -32.944 -11.545  20.203  0.00  0.00    +0.324 C 
BRANCH  12  13
ATOM     13  C   UNL     1     -33.241 -10.095  19.971  0.00  0.00    +0.248 C 
ATOM     14  N   UNL     1     -34.589  -9.635  19.875  0.00  0.00    -0.327 N 
ATOM     15  O   UNL     1     -32.292  -9.278  19.830  0.00  0.00    -0.272 OA
ATOM     16  H   UNL     1     -35.389 -10.300  19.970  0.00  0.00    +0.145 HD
ATOM     17  H   UNL     1     -34.790  -8.625  19.705  0.00  0.00    +0.145 HD
ENDBRANCH  12  13
ENDBRANCH  11  12
ENDBRANCH  10  11
ENDBRANCH   2   5
BRANCH   1  18
ATOM     18  C   UNL     1     -31.925 -10.480  15.532  0.00  0.00    +0.101 C 
ATOM     19  C   UNL     1     -32.874  -9.512  16.256  0.00  0.00    +0.033 C 
BRANCH  18  25
ATOM     20  C   UNL     1     -32.018 -14.164  11.938  0.00  0.00    +0.044 C 
ATOM     21  C   UNL     1     -32.661 -13.046  12.720  0.00  0.00    -0.047 A 
ATOM     22  C   UNL     1     -33.978 -12.683  12.398  0.00  0.00    +0.003 A 
ATOM     23  C   UNL     1     -34.622 -11.665  13.091  0.00  0.00    +0.001 A 
ATOM     24  C   UNL     1     -33.955 -10.971  14.094  0.00  0.00    +0.006 A 
ATOM     25  C   UNL     1     -32.619 -11.275  14.424  0.00  0.00    -0.024 A 
ATOM     26  C   UNL     1     -31.986 -12.380  13.781  0.00  0.00    -0.043 A 
ATOM     27  C   UNL     1     -30.600 -12.822  14.204  0.00  0.00    +0.044 C 
ENDBRANCH  18  25
ENDBRANCH   1  18
TORSDOF 6
ENDMDL
