MODEL 1
REMARK VINA RESULT:    -4.431      0.000      0.000
REMARK INTER + INTRA:          -6.786
REMARK INTER:                  -6.115
REMARK INTRA:                  -0.671
REMARK UNBOUND:                -0.671
REMARK  Name = 
REMARK  8 active torsions:
REMARK  status: ('A' for Active; 'I' for Inactive)
REMARK    1  A    between atoms: C_1  and  O_2
REMARK    2  A    between atoms: O_2  and  C_3
REMARK    3  A    between atoms: C_5  and  C_12
REMARK    4  A    between atoms: C_8  and  C_9
REMARK    5  A    between atoms: C_9  and  O_11
REMARK    6  A    between atoms: C_12  and  N_13
REMARK    7  A    between atoms: C_14  and  C_16
REMARK    8  A    between atoms: C_18  and  C_19
REMARK                            x       y       z     vdW  Elec       q    Type
REMARK                         _______ _______ _______ _____ _____    ______ ____
ROOT
ATOM      1  N   UNL     1     -31.323  -9.342  19.060  0.00  0.00    -0.311 N 
ATOM      2  C   UNL     1     -32.641  -8.800  18.898  0.00  0.00    +0.217 C 
ATOM      3  O   UNL     1     -33.274  -8.352  19.892  0.00  0.00    -0.275 OA
ATOM      4  H   UNL     1     -30.818  -9.707  18.220  0.00  0.00    +0.149 HD
ENDROOT
BRANCH   2   5
ATOM      5  C   UNL     1     -33.294  -8.814  17.549  0.00  0.00    +0.083 C 
ATOM      6  C   UNL     1     -34.816  -8.681  17.596  0.00  0.00    +0.022 C 
ATOM      7  C   UNL     1     -34.179 -10.029  17.275  0.00  0.00    +0.032 C 
BRANCH   7   8
ATOM      8  C   UNL     1     -34.271 -10.509  15.837  0.00  0.00    -0.043 A 
ATOM      9  C   UNL     1     -33.573 -11.679  15.491  0.00  0.00    +0.007 A 
ATOM     10  C   UNL     1     -33.611 -12.174  14.185  0.00  0.00    +0.038 A 
ATOM     11  C   UNL     1     -34.348 -11.508  13.204  0.00  0.00    +0.123 A 
ATOM     12  F   UNL     1     -34.385 -11.991  11.938  0.00  0.00    -0.205 F 
ATOM     13  C   UNL     1     -35.047 -10.343  13.529  0.00  0.00    +0.038 A 
ATOM     14  C   UNL     1     -35.011  -9.842  14.834  0.00  0.00    +0.007 A 
ENDBRANCH   7   8
ENDBRANCH   2   5
BRANCH   1  15
ATOM     15  C   UNL     1     -30.653  -9.400  20.356  0.00  0.00    +0.139 C 
BRANCH  15  18
ATOM     16  C   UNL     1     -28.566 -12.446  19.372  0.00  0.00    +0.134 A 
ATOM     17  C   UNL     1     -29.324 -11.259  19.300  0.00  0.00    +0.051 A 
ATOM     18  C   UNL     1     -29.824 -10.651  20.459  0.00  0.00    -0.027 A 
ATOM     19  C   UNL     1     -29.569 -11.236  21.704  0.00  0.00    +0.006 A 
ATOM     20  C   UNL     1     -28.820 -12.408  21.793  0.00  0.00    +0.019 A 
ATOM     21  C   UNL     1     -28.311 -13.030  20.637  0.00  0.00    +0.100 A 
BRANCH  16  23
ATOM     22  C   UNL     1     -28.854 -13.463  17.097  0.00  0.00    +0.277 C 
ATOM     23  O   UNL     1     -28.065 -13.060  18.211  0.00  0.00    -0.494 OA
ENDBRANCH  16  23
BRANCH  21  24
ATOM     24  C   UNL     1     -27.520 -14.282  20.776  0.00  0.00    +0.340 C 
ATOM     25  O   UNL     1     -27.678 -15.022  21.785  0.00  0.00    -0.245 OA
BRANCH  24  26
ATOM     26  O   UNL     1     -26.598 -14.662  19.803  0.00  0.00    -0.477 OA
ATOM     27  H   UNL     1     -26.223 -15.603  19.780  0.00  0.00    +0.295 HD
ENDBRANCH  24  26
ENDBRANCH  21  24
ENDBRANCH  15  18
ENDBRANCH   1  15
TORSDOF 7
ENDMDL
MODEL 2
REMARK VINA RESULT:    -4.162      3.962      6.311
REMARK INTER + INTRA:          -6.415
REMARK INTER:                  -5.940
REMARK INTRA:                  -0.475
REMARK UNBOUND:                -0.671
REMARK  Name = 
REMARK  8 active torsions:
REMARK  status: ('A' for Active; 'I' for Inactive)
REMARK    1  A    between atoms: C_1  and  O_2
REMARK    2  A    between atoms: O_2  and  C_3
REMARK    3  A    between atoms: C_5  and  C_12
REMARK    4  A    between atoms: C_8  and  C_9
REMARK    5  A    between atoms: C_9  and  O_11
REMARK    6  A    between atoms: C_12  and  N_13
REMARK    7  A    between atoms: C_14  and  C_16
REMARK    8  A    between atoms: C_18  and  C_19
REMARK                            x       y       z     vdW  Elec       q    Type
REMARK                         _______ _______ _______ _____ _____    ______ ____
ROOT
ATOM      1  N   UNL     1     -33.877 -10.842  14.193  0.00  0.00    -0.311 N 
ATOM      2  C   UNL     1     -34.561 -11.032  15.438  0.00  0.00    +0.217 C 
ATOM      3  O   UNL     1     -34.950 -12.180  15.785  0.00  0.00    -0.275 OA
ATOM      4  H   UNL     1     -33.564  -9.880  13.928  0.00  0.00    +0.149 HD
ENDROOT
BRANCH   2   5
ATOM      5  C   UNL     1     -34.866  -9.852  16.311  0.00  0.00    +0.083 C 
ATOM      6  C   UNL     1     -34.185  -8.559  15.865  0.00  0.00    +0.022 C 
ATOM      7  C   UNL     1     -33.672  -9.304  17.092  0.00  0.00    +0.032 C 
BRANCH   7   8
ATOM      8  C   UNL     1     -33.959  -8.679  18.446  0.00  0.00    -0.043 A 
ATOM      9  C   UNL     1     -34.428  -7.354  18.469  0.00  0.00    +0.007 A 
ATOM     10  C   UNL     1     -34.709  -6.717  19.681  0.00  0.00    +0.038 A 
ATOM     11  C   UNL     1     -34.526  -7.394  20.888  0.00  0.00    +0.123 A 
ATOM     12  F   UNL     1     -34.800  -6.774  22.062  0.00  0.00    -0.205 F 
ATOM     13  C   UNL     1     -34.060  -8.710  20.885  0.00  0.00    +0.038 A 
ATOM     14  C   UNL     1     -33.776  -9.353  19.676  0.00  0.00    +0.007 A 
ENDBRANCH   7   8
ENDBRANCH   2   5
BRANCH   1  15
ATOM     15  C   UNL     1     -33.594 -11.944  13.278  0.00  0.00    +0.139 C 
BRANCH  15  18
ATOM     16  C   UNL     1     -30.497 -12.959  15.273  0.00  0.00    +0.134 A 
ATOM     17  C   UNL     1     -31.711 -12.346  14.900  0.00  0.00    +0.051 A 
ATOM     18  C   UNL     1     -32.313 -12.631  13.667  0.00  0.00    -0.027 A 
ATOM     19  C   UNL     1     -31.696 -13.533  12.794  0.00  0.00    +0.006 A 
ATOM     20  C   UNL     1     -30.496 -14.149  13.149  0.00  0.00    +0.019 A 
ATOM     21  C   UNL     1     -29.880 -13.874  14.385  0.00  0.00    +0.100 A 
BRANCH  16  23
ATOM     22  C   UNL     1     -30.173 -11.534  17.312  0.00  0.00    +0.277 C 
ATOM     23  O   UNL     1     -29.889 -12.674  16.508  0.00  0.00    -0.494 OA
ENDBRANCH  16  23
BRANCH  21  24
ATOM     24  C   UNL     1     -28.599 -14.549  14.723  0.00  0.00    +0.340 C 
ATOM     25  O   UNL     1     -27.894 -15.062  13.812  0.00  0.00    -0.245 OA
BRANCH  24  26
ATOM     26  O   UNL     1     -28.153 -14.629  16.040  0.00  0.00    -0.477 OA
ATOM     27  H   UNL     1     -28.799 -14.806  16.800  0.00  0.00    +0.295 HD
ENDBRANCH  24  26
ENDBRANCH  21  24
ENDBRANCH  15  18
ENDBRANCH   1  15
TORSDOF 7
ENDMDL
MODEL 3
REMARK VINA RESULT:    -3.942      4.314      8.414
REMARK INTER + INTRA:          -6.112
REMARK INTER:                  -5.342
REMARK INTRA:                  -0.770
REMARK UNBOUND:                -0.671
REMARK  Name = 
REMARK  8 active torsions:
REMARK  status: ('A' for Active; 'I' for Inactive)
REMARK    1  A    between atoms: C_1  and  O_2
REMARK    2  A    between atoms: O_2  and  C_3
REMARK    3  A    between atoms: C_5  and  C_12
REMARK    4  A    between atoms: C_8  and  C_9
REMARK    5  A    between atoms: C_9  and  O_11
REMARK    6  A    between atoms: C_12  and  N_13
REMARK    7  A    between atoms: C_14  and  C_16
REMARK    8  A    between atoms: C_18  and  C_19
REMARK                            x       y       z     vdW  Elec       q    Type
REMARK                         _______ _______ _______ _____ _____    ______ ____
ROOT
ATOM      1  N   UNL     1     -30.396  -9.883  16.962  0.00  0.00    -0.311 N 
ATOM      2  C   UNL     1     -30.425 -10.448  18.280  0.00  0.00    +0.217 C 
ATOM      3  O   UNL     1     -31.522 -10.620  18.876  0.00  0.00    -0.275 OA
ATOM      4  H   UNL     1     -29.472  -9.750  16.488  0.00  0.00    +0.149 HD
ENDROOT
BRANCH   2   5
ATOM      5  C   UNL     1     -29.143 -10.787  18.977  0.00  0.00    +0.083 C 
ATOM      6  C   UNL     1     -27.901 -10.638  18.098  0.00  0.00    +0.022 C 
ATOM      7  C   UNL     1     -28.428 -12.027  18.442  0.00  0.00    +0.032 C 
BRANCH   7   8
ATOM      8  C   UNL     1     -27.619 -12.842  19.436  0.00  0.00    -0.043 A 
ATOM      9  C   UNL     1     -26.218 -12.809  19.323  0.00  0.00    +0.007 A 
ATOM     10  C   UNL     1     -25.413 -13.538  20.203  0.00  0.00    +0.038 A 
ATOM     11  C   UNL     1     -25.996 -14.311  21.209  0.00  0.00    +0.123 A 
ATOM     12  F   UNL     1     -25.213 -15.018  22.062  0.00  0.00    -0.205 F 
ATOM     13  C   UNL     1     -27.386 -14.358  21.334  0.00  0.00    +0.038 A 
ATOM     14  C   UNL     1     -28.197 -13.632  20.457  0.00  0.00    +0.007 A 
ENDBRANCH   7   8
ENDBRANCH   2   5
BRANCH   1  15
ATOM     15  C   UNL     1     -31.607  -9.488  16.250  0.00  0.00    +0.139 C 
BRANCH  15  18
ATOM     16  C   UNL     1     -33.515 -11.349  13.513  0.00  0.00    +0.134 A 
ATOM     17  C   UNL     1     -33.134 -10.371  14.455  0.00  0.00    +0.051 A 
ATOM     18  C   UNL     1     -31.980 -10.531  15.232  0.00  0.00    -0.027 A 
ATOM     19  C   UNL     1     -31.198 -11.680  15.072  0.00  0.00    +0.006 A 
ATOM     20  C   UNL     1     -31.560 -12.655  14.144  0.00  0.00    +0.019 A 
ATOM     21  C   UNL     1     -32.717 -12.508  13.355  0.00  0.00    +0.100 A 
BRANCH  16  23
ATOM     22  C   UNL     1     -35.062  -9.989  12.082  0.00  0.00    +0.277 C 
ATOM     23  O   UNL     1     -34.674 -11.194  12.732  0.00  0.00    -0.494 OA
ENDBRANCH  16  23
BRANCH  21  24
ATOM     24  C   UNL     1     -33.069 -13.574  12.379  0.00  0.00    +0.340 C 
ATOM     25  O   UNL     1     -32.177 -14.348  11.938  0.00  0.00    -0.245 OA
BRANCH  24  26
ATOM     26  O   UNL     1     -34.379 -13.741  11.938  0.00  0.00    -0.477 OA
ATOM     27  H   UNL     1     -34.590 -13.833  10.951  0.00  0.00    +0.295 HD
ENDBRANCH  24  26
ENDBRANCH  21  24
ENDBRANCH  15  18
ENDBRANCH   1  15
TORSDOF 7
ENDMDL
MODEL 4
REMARK VINA RESULT:    -3.851      3.382      5.686
REMARK INTER + INTRA:          -5.986
REMARK INTER:                  -5.755
REMARK INTRA:                  -0.231
REMARK UNBOUND:                -0.671
REMARK  Name = 
REMARK  8 active torsions:
REMARK  status: ('A' for Active; 'I' for Inactive)
REMARK    1  A    between atoms: C_1  and  O_2
REMARK    2  A    between atoms: O_2  and  C_3
REMARK    3  A    between atoms: C_5  and  C_12
REMARK    4  A    between atoms: C_8  and  C_9
REMARK    5  A    between atoms: C_9  and  O_11
REMARK    6  A    between atoms: C_12  and  N_13
REMARK    7  A    between atoms: C_14  and  C_16
REMARK    8  A    between atoms: C_18  and  C_19
REMARK                            x       y       z     vdW  Elec       q    Type
REMARK                         _______ _______ _______ _____ _____    ______ ____
ROOT
ATOM      1  N   UNL     1     -34.122  -8.480  16.438  0.00  0.00    -0.311 N 
ATOM      2  C   UNL     1     -34.343  -9.840  16.043  0.00  0.00    +0.217 C 
ATOM      3  O   UNL     1     -35.062 -10.601  16.745  0.00  0.00    -0.275 OA
ATOM      4  H   UNL     1     -33.521  -7.869  15.838  0.00  0.00    +0.149 HD
ENDROOT
BRANCH   2   5
ATOM      5  C   UNL     1     -33.671 -10.381  14.817  0.00  0.00    +0.083 C 
ATOM      6  C   UNL     1     -34.642 -10.889  13.752  0.00  0.00    +0.022 C 
ATOM      7  C   UNL     1     -33.850 -11.882  14.595  0.00  0.00    +0.032 C 
BRANCH   7   8
ATOM      8  C   UNL     1     -32.716 -12.619  13.904  0.00  0.00    -0.043 A 
ATOM      9  C   UNL     1     -31.710 -13.177  14.712  0.00  0.00    +0.007 A 
ATOM     10  C   UNL     1     -30.635 -13.866  14.142  0.00  0.00    +0.038 A 
ATOM     11  C   UNL     1     -30.550 -14.008  12.756  0.00  0.00    +0.123 A 
ATOM     12  F   UNL     1     -29.507 -14.677  12.205  0.00  0.00    -0.205 F 
ATOM     13  C   UNL     1     -31.539 -13.459  11.938  0.00  0.00    +0.038 A 
ATOM     14  C   UNL     1     -32.616 -12.768  12.502  0.00  0.00    +0.007 A 
ENDBRANCH   7   8
ENDBRANCH   2   5
BRANCH   1  15
ATOM     15  C   UNL     1     -34.709  -7.909  17.647  0.00  0.00    +0.139 C 
BRANCH  15  18
ATOM     16  C   UNL     1     -31.513  -7.719  19.733  0.00  0.00    +0.134 A 
ATOM     17  C   UNL     1     -32.523  -8.183  18.865  0.00  0.00    +0.051 A 
ATOM     18  C   UNL     1     -33.629  -7.382  18.553  0.00  0.00    -0.027 A 
ATOM     19  C   UNL     1     -33.732  -6.106  19.115  0.00  0.00    +0.006 A 
ATOM     20  C   UNL     1     -32.741  -5.631  19.973  0.00  0.00    +0.019 A 
ATOM     21  C   UNL     1     -31.624  -6.424  20.296  0.00  0.00    +0.100 A 
BRANCH  16  23
ATOM     22  C   UNL     1     -30.341  -9.932  19.875  0.00  0.00    +0.277 C 
ATOM     23  O   UNL     1     -30.403  -8.520  20.050  0.00  0.00    -0.494 OA
ENDBRANCH  16  23
BRANCH  21  24
ATOM     24  C   UNL     1     -30.591  -5.881  21.218  0.00  0.00    +0.340 C 
ATOM     25  O   UNL     1     -30.885  -4.955  22.023  0.00  0.00    -0.245 OA
BRANCH  24  26
ATOM     26  O   UNL     1     -29.291  -6.379  21.216  0.00  0.00    -0.477 OA
ATOM     27  H   UNL     1     -28.814  -6.598  22.083  0.00  0.00    +0.295 HD
ENDBRANCH  24  26
ENDBRANCH  21  24
ENDBRANCH  15  18
ENDBRANCH   1  15
TORSDOF 7
ENDMDL
MODEL 5
REMARK VINA RESULT:    -3.607      1.836      2.199
REMARK INTER + INTRA:          -5.649
REMARK INTER:                  -5.379
REMARK INTRA:                  -0.270
REMARK UNBOUND:                -0.671
REMARK  Name = 
REMARK  8 active torsions:
REMARK  status: ('A' for Active; 'I' for Inactive)
REMARK    1  A    between atoms: C_1  and  O_2
REMARK    2  A    between atoms: O_2  and  C_3
REMARK    3  A    between atoms: C_5  and  C_12
REMARK    4  A    between atoms: C_8  and  C_9
REMARK    5  A    between atoms: C_9  and  O_11
REMARK    6  A    between atoms: C_12  and  N_13
REMARK    7  A    between atoms: C_14  and  C_16
REMARK    8  A    between atoms: C_18  and  C_19
REMARK                            x       y       z     vdW  Elec       q    Type
REMARK                         _______ _______ _______ _____ _____    ______ ____
ROOT
ATOM      1  N   UNL     1     -31.603 -10.667  19.367  0.00  0.00    -0.311 N 
ATOM      2  C   UNL     1     -32.296 -11.910  19.190  0.00  0.00    +0.217 C 
ATOM      3  O   UNL     1     -32.232 -12.809  20.072  0.00  0.00    -0.275 OA
ATOM      4  H   UNL     1     -31.673  -9.938  18.621  0.00  0.00    +0.149 HD
ENDROOT
BRANCH   2   5
ATOM      5  C   UNL     1     -33.059 -12.167  17.926  0.00  0.00    +0.083 C 
ATOM      6  C   UNL     1     -32.562 -13.377  17.137  0.00  0.00    +0.022 C 
ATOM      7  C   UNL     1     -32.260 -11.967  16.640  0.00  0.00    +0.032 C 
BRANCH   7   8
ATOM      8  C   UNL     1     -33.024 -11.491  15.417  0.00  0.00    -0.043 A 
ATOM      9  C   UNL     1     -33.056 -12.337  14.294  0.00  0.00    +0.007 A 
ATOM     10  C   UNL     1     -33.738 -11.959  13.134  0.00  0.00    +0.038 A 
ATOM     11  C   UNL     1     -34.399 -10.731  13.079  0.00  0.00    +0.123 A 
ATOM     12  F   UNL     1     -35.061 -10.367  11.952  0.00  0.00    -0.205 F 
ATOM     13  C   UNL     1     -34.376  -9.877  14.183  0.00  0.00    +0.038 A 
ATOM     14  C   UNL     1     -33.695 -10.249  15.346  0.00  0.00    +0.007 A 
ENDBRANCH   7   8
ENDBRANCH   2   5
BRANCH   1  15
ATOM     15  C   UNL     1     -30.804 -10.377  20.554  0.00  0.00    +0.139 C 
BRANCH  15  18
ATOM     16  C   UNL     1     -27.559 -12.147  19.588  0.00  0.00    +0.134 A 
ATOM     17  C   UNL     1     -28.674 -11.285  19.566  0.00  0.00    +0.051 A 
ATOM     18  C   UNL     1     -29.606 -11.285  20.613  0.00  0.00    -0.027 A 
ATOM     19  C   UNL     1     -29.425 -12.155  21.692  0.00  0.00    +0.006 A 
ATOM     20  C   UNL     1     -28.326 -13.012  21.730  0.00  0.00    +0.019 A 
ATOM     21  C   UNL     1     -27.381 -13.023  20.686  0.00  0.00    +0.100 A 
BRANCH  16  23
ATOM     22  C   UNL     1     -26.466 -11.108  17.584  0.00  0.00    +0.277 C 
ATOM     23  O   UNL     1     -26.623 -12.152  18.539  0.00  0.00    -0.494 OA
ENDBRANCH  16  23
BRANCH  21  24
ATOM     24  C   UNL     1     -26.225 -13.956  20.765  0.00  0.00    +0.340 C 
ATOM     25  O   UNL     1     -25.426 -13.893  21.739  0.00  0.00    -0.245 OA
BRANCH  24  26
ATOM     26  O   UNL     1     -26.001 -14.910  19.776  0.00  0.00    -0.477 OA
ATOM     27  H   UNL     1     -26.508 -14.881  18.899  0.00  0.00    +0.295 HD
ENDBRANCH  24  26
ENDBRANCH  21  24
ENDBRANCH  15  18
ENDBRANCH   1  15
TORSDOF 7
ENDMDL
MODEL 6
REMARK VINA RESULT:    -3.404      3.948      7.517
REMARK INTER + INTRA:          -5.369
REMARK INTER:                  -4.612
REMARK INTRA:                  -0.757
REMARK UNBOUND:                -0.671
REMARK  Name = 
REMARK  8 active torsions:
REMARK  status: ('A' for Active; 'I' for Inactive)
REMARK    1  A    between atoms: C_1  and  O_2
REMARK    2  A    between atoms: O_2  and  C_3
REMARK    3  A    between atoms: C_5  and  C_12
REMARK    4  A    between atoms: C_8  and  C_9
REMARK    5  A    between atoms: C_9  and  O_11
REMARK    6  A    between atoms: C_12  and  N_13
REMARK    7  A    between atoms: C_14  and  C_16
REMARK    8  A    between atoms: C_18  and  C_19
REMARK                            x       y       z     vdW  Elec       q    Type
REMARK                         _______ _______ _______ _____ _____    ______ ____
ROOT
ATOM      1  N   UNL     1     -29.217 -12.287  17.728  0.00  0.00    -0.311 N 
ATOM      2  C   UNL     1     -29.287 -12.376  19.158  0.00  0.00    +0.217 C 
ATOM      3  O   UNL     1     -29.347 -13.500  19.725  0.00  0.00    -0.275 OA
ATOM      4  H   UNL     1     -29.167 -11.342  17.282  0.00  0.00    +0.149 HD
ENDROOT
BRANCH   2   5
ATOM      5  C   UNL     1     -29.343 -11.126  19.983  0.00  0.00    +0.083 C 
ATOM      6  C   UNL     1     -29.802 -11.354  21.423  0.00  0.00    +0.022 C 
ATOM      7  C   UNL     1     -30.746 -10.704  20.417  0.00  0.00    +0.032 C 
BRANCH   7   8
ATOM      8  C   UNL     1     -31.002  -9.216  20.577  0.00  0.00    -0.043 A 
ATOM      9  C   UNL     1     -31.693  -8.556  19.545  0.00  0.00    +0.007 A 
ATOM     10  C   UNL     1     -31.960  -7.186  19.626  0.00  0.00    +0.038 A 
ATOM     11  C   UNL     1     -31.541  -6.455  20.739  0.00  0.00    +0.123 A 
ATOM     12  F   UNL     1     -31.802  -5.127  20.816  0.00  0.00    -0.205 F 
ATOM     13  C   UNL     1     -30.853  -7.093  21.773  0.00  0.00    +0.038 A 
ATOM     14  C   UNL     1     -30.582  -8.463  21.697  0.00  0.00    +0.007 A 
ENDBRANCH   7   8
ENDBRANCH   2   5
BRANCH   1  15
ATOM     15  C   UNL     1     -29.208 -13.466  16.868  0.00  0.00    +0.139 C 
BRANCH  15  18
ATOM     16  C   UNL     1     -32.097 -12.119  14.762  0.00  0.00    +0.134 A 
ATOM     17  C   UNL     1     -31.149 -12.277  15.793  0.00  0.00    +0.051 A 
ATOM     18  C   UNL     1     -30.193 -13.300  15.743  0.00  0.00    -0.027 A 
ATOM     19  C   UNL     1     -30.185 -14.178  14.654  0.00  0.00    +0.006 A 
ATOM     20  C   UNL     1     -31.114 -14.035  13.626  0.00  0.00    +0.019 A 
ATOM     21  C   UNL     1     -32.081 -13.011  13.662  0.00  0.00    +0.100 A 
BRANCH  16  23
ATOM     22  C   UNL     1     -33.016  -9.977  15.690  0.00  0.00    +0.277 C 
ATOM     23  O   UNL     1     -33.059 -11.095  14.810  0.00  0.00    -0.494 OA
ENDBRANCH  16  23
BRANCH  21  24
ATOM     24  C   UNL     1     -33.057 -12.895  12.546  0.00  0.00    +0.340 C 
ATOM     25  O   UNL     1     -33.448 -13.929  11.938  0.00  0.00    -0.245 OA
BRANCH  24  26
ATOM     26  O   UNL     1     -33.557 -11.657  12.152  0.00  0.00    -0.477 OA
ATOM     27  H   UNL     1     -34.310 -11.588  11.478  0.00  0.00    +0.295 HD
ENDBRANCH  24  26
ENDBRANCH  21  24
ENDBRANCH  15  18
ENDBRANCH   1  15
TORSDOF 7
ENDMDL
MODEL 7
REMARK VINA RESULT:    -3.128      3.749      6.198
REMARK INTER + INTRA:          -4.989
REMARK INTER:                  -4.885
REMARK INTRA:                  -0.104
REMARK UNBOUND:                -0.671
REMARK  Name = 
REMARK  8 active torsions:
REMARK  status: ('A' for Active; 'I' for Inactive)
REMARK    1  A    between atoms: C_1  and  O_2
REMARK    2  A    between atoms: O_2  and  C_3
REMARK    3  A    between atoms: C_5  and  C_12
REMARK    4  A    between atoms: C_8  and  C_9
REMARK    5  A    between atoms: C_9  and  O_11
REMARK    6  A    between atoms: C_12  and  N_13
REMARK    7  A    between atoms: C_14  and  C_16
REMARK    8  A    between atoms: C_18  and  C_19
REMARK                            x       y       z     vdW  Elec       q    Type
REMARK                         _______ _______ _______ _____ _____    ______ ____
ROOT
ATOM      1  N   UNL     1     -30.644 -12.282  18.979  0.00  0.00    -0.311 N 
ATOM      2  C   UNL     1     -31.644 -12.215  17.954  0.00  0.00    +0.217 C 
ATOM      3  O   UNL     1     -32.863 -12.104  18.256  0.00  0.00    -0.275 OA
ATOM      4  H   UNL     1     -29.639 -12.373  18.702  0.00  0.00    +0.149 HD
ENDROOT
BRANCH   2   5
ATOM      5  C   UNL     1     -31.246 -12.331  16.513  0.00  0.00    +0.083 C 
ATOM      6  C   UNL     1     -32.386 -12.755  15.588  0.00  0.00    +0.022 C 
ATOM      7  C   UNL     1     -31.287 -13.749  15.947  0.00  0.00    +0.032 C 
BRANCH   7   8
ATOM      8  C   UNL     1     -30.284 -14.088  14.858  0.00  0.00    -0.043 A 
ATOM      9  C   UNL     1     -29.009 -14.527  15.256  0.00  0.00    +0.007 A 
ATOM     10  C   UNL     1     -28.037 -14.852  14.306  0.00  0.00    +0.038 A 
ATOM     11  C   UNL     1     -28.324 -14.745  12.944  0.00  0.00    +0.123 A 
ATOM     12  F   UNL     1     -27.380 -15.062  12.024  0.00  0.00    -0.205 F 
ATOM     13  C   UNL     1     -29.584 -14.309  12.530  0.00  0.00    +0.038 A 
ATOM     14  C   UNL     1     -30.561 -13.981  13.476  0.00  0.00    +0.007 A 
ENDBRANCH   7   8
ENDBRANCH   2   5
BRANCH   1  15
ATOM     15  C   UNL     1     -30.973 -12.223  20.401  0.00  0.00    +0.139 C 
BRANCH  15  18
ATOM     16  C   UNL     1     -31.822  -8.507  20.656  0.00  0.00    +0.134 A 
ATOM     17  C   UNL     1     -31.161  -9.713  20.349  0.00  0.00    +0.051 A 
ATOM     18  C   UNL     1     -31.710 -10.950  20.715  0.00  0.00    -0.027 A 
ATOM     19  C   UNL     1     -32.930 -10.984  21.398  0.00  0.00    +0.006 A 
ATOM     20  C   UNL     1     -33.597  -9.800  21.708  0.00  0.00    +0.019 A 
ATOM     21  C   UNL     1     -33.059  -8.550  21.346  0.00  0.00    +0.100 A 
BRANCH  16  23
ATOM     22  C   UNL     1     -30.159  -6.650  20.928  0.00  0.00    +0.277 C 
ATOM     23  O   UNL     1     -31.274  -7.264  20.293  0.00  0.00    -0.494 OA
ENDBRANCH  16  23
BRANCH  21  24
ATOM     24  C   UNL     1     -33.801  -7.311  21.699  0.00  0.00    +0.340 C 
ATOM     25  O   UNL     1     -35.062  -7.300  21.675  0.00  0.00    -0.245 OA
BRANCH  24  26
ATOM     26  O   UNL     1     -33.128  -6.147  22.062  0.00  0.00    -0.477 OA
ATOM     27  H   UNL     1     -33.392  -5.629  22.892  0.00  0.00    +0.295 HD
ENDBRANCH  24  26
ENDBRANCH  21  24
ENDBRANCH  15  18
ENDBRANCH   1  15
TORSDOF 7
ENDMDL
