MODEL 1
REMARK VINA RESULT:    -4.208      0.000      0.000
REMARK INTER + INTRA:          -8.711
REMARK INTER:                  -5.930
REMARK INTRA:                  -2.781
REMARK UNBOUND:                -2.781
REMARK  Name = 
REMARK  7 active torsions:
REMARK  status: ('A' for Active; 'I' for Inactive)
REMARK    1  A    between atoms: S_2  and  N_4
REMARK    2  A    between atoms: S_2  and  C_18
REMARK    3  A    between atoms: N_4  and  C_5
REMARK    4  A    between atoms: N_11  and  C_12
REMARK    5  A    between atoms: C_21  and  S_24
REMARK    6  A    between atoms: S_24  and  N_27
REMARK    7  A    between atoms: N_27  and  C_28
REMARK                            x       y       z     vdW  Elec       q    Type
REMARK                         _______ _______ _______ _____ _____    ______ ____
ROOT
ATOM      1  O   UNL     1     -27.622 -13.554  19.259  0.00  0.00    -0.150 OA
ATOM      2  S   UNL     1     -28.683 -13.009  18.345  0.00  0.00    +0.072 S 
ATOM      3  O   UNL     1     -28.050 -12.053  17.374  0.00  0.00    -0.150 OA
ENDROOT
BRANCH   2   4
ATOM      4  C   UNL     1     -29.924 -12.155  19.256  0.00  0.00    +0.109 A 
ATOM      5  C   UNL     1     -29.907 -10.756  19.295  0.00  0.00    +0.031 A 
ATOM      6  C   UNL     1     -30.940 -10.057  19.923  0.00  0.00    +0.030 A 
ATOM      7  C   UNL     1     -32.002 -10.752  20.516  0.00  0.00    +0.105 A 
ATOM      8  C   UNL     1     -32.013 -12.154  20.488  0.00  0.00    +0.030 A 
ATOM      9  C   UNL     1     -30.977 -12.853  19.863  0.00  0.00    +0.031 A 
BRANCH   7  10
ATOM     10  S   UNL     1     -33.375  -9.873  21.181  0.00  0.00    +0.059 S 
ATOM     11  O   UNL     1     -32.891  -8.755  22.062  0.00  0.00    -0.153 OA
ATOM     12  O   UNL     1     -34.211 -10.808  22.010  0.00  0.00    -0.153 OA
BRANCH  10  13
ATOM     13  N   UNL     1     -34.343  -9.231  19.890  0.00  0.00    -0.187 NA
ATOM     14  H   UNL     1     -35.321  -9.561  20.052  0.00  0.00    +0.148 HD
BRANCH  13  15
ATOM     15  C   UNL     1     -34.354  -7.775  19.996  0.00  0.00    +0.077 C 
ATOM     16  C   UNL     1     -33.367  -7.086  19.069  0.00  0.00    +0.022 C 
ATOM     17  C   UNL     1     -34.848  -7.096  18.730  0.00  0.00    +0.022 C 
ENDBRANCH  13  15
ENDBRANCH  10  13
ENDBRANCH   7  10
ENDBRANCH   2   4
BRANCH   2  18
ATOM     18  N   UNL     1     -29.424 -14.313  17.476  0.00  0.00    -0.213 N 
ATOM     19  H   UNL     1     -29.455 -15.247  17.940  0.00  0.00    +0.174 HD
BRANCH  18  20
ATOM     20  C   UNL     1     -29.783 -14.191  16.090  0.00  0.00    +0.088 A 
ATOM     21  C   UNL     1     -29.010 -14.816  15.099  0.00  0.00    +0.029 A 
ATOM     22  C   UNL     1     -29.347 -14.679  13.754  0.00  0.00    +0.022 A 
ATOM     23  C   UNL     1     -30.457 -13.913  13.404  0.00  0.00    +0.113 A 
ATOM     24  N   UNL     1     -31.202 -13.315  14.369  0.00  0.00    -0.238 NA
ATOM     25  C   UNL     1     -30.899 -13.422  15.694  0.00  0.00    +0.145 A 
ATOM     26  N   UNL     1     -31.771 -12.832  16.674  0.00  0.00    -0.298 N 
ATOM     27  H   UNL     1     -31.868 -13.307  17.600  0.00  0.00    +0.154 HD
BRANCH  26  28
ATOM     28  C   UNL     1     -32.643 -11.721  16.399  0.00  0.00    +0.032 A 
ATOM     29  C   UNL     1     -34.034 -11.909  16.446  0.00  0.00    +0.023 A 
ATOM     30  C   UNL     1     -34.901 -10.839  16.206  0.00  0.00    +0.002 A 
ATOM     31  C   UNL     1     -34.387  -9.569  15.931  0.00  0.00    +0.000 A 
ATOM     32  C   UNL     1     -33.005  -9.367  15.901  0.00  0.00    +0.002 A 
ATOM     33  C   UNL     1     -32.134 -10.435  16.141  0.00  0.00    +0.023 A 
ENDBRANCH  26  28
ENDBRANCH  18  20
ENDBRANCH   2  18
TORSDOF 7
ENDMDL
MODEL 2
REMARK VINA RESULT:    -3.775      2.293      6.471
REMARK INTER + INTRA:          -8.102
REMARK INTER:                  -5.581
REMARK INTRA:                  -2.521
REMARK UNBOUND:                -2.781
REMARK  Name = 
REMARK  7 active torsions:
REMARK  status: ('A' for Active; 'I' for Inactive)
REMARK    1  A    between atoms: S_2  and  N_4
REMARK    2  A    between atoms: S_2  and  C_18
REMARK    3  A    between atoms: N_4  and  C_5
REMARK    4  A    between atoms: N_11  and  C_12
REMARK    5  A    between atoms: C_21  and  S_24
REMARK    6  A    between atoms: S_24  and  N_27
REMARK    7  A    between atoms: N_27  and  C_28
REMARK                            x       y       z     vdW  Elec       q    Type
REMARK                         _______ _______ _______ _____ _____    ______ ____
ROOT
ATOM      1  O   UNL     1     -29.010 -10.681  22.034  0.00  0.00    -0.150 OA
ATOM      2  S   UNL     1     -30.145 -10.421  21.084  0.00  0.00    +0.072 S 
ATOM      3  O   UNL     1     -31.445 -10.654  21.798  0.00  0.00    -0.150 OA
ENDROOT
BRANCH   2   4
ATOM      4  C   UNL     1     -30.060 -11.496  19.692  0.00  0.00    +0.109 A 
ATOM      5  C   UNL     1     -30.947 -12.576  19.603  0.00  0.00    +0.031 A 
ATOM      6  C   UNL     1     -30.968 -13.377  18.459  0.00  0.00    +0.030 A 
ATOM      7  C   UNL     1     -30.101 -13.104  17.393  0.00  0.00    +0.105 A 
ATOM      8  C   UNL     1     -29.204 -12.032  17.487  0.00  0.00    +0.030 A 
ATOM      9  C   UNL     1     -29.181 -11.232  18.633  0.00  0.00    +0.031 A 
BRANCH   7  10
ATOM     10  S   UNL     1     -30.224 -14.022  15.895  0.00  0.00    +0.059 S 
ATOM     11  O   UNL     1     -31.306 -15.058  16.016  0.00  0.00    -0.153 OA
ATOM     12  O   UNL     1     -28.919 -14.721  15.631  0.00  0.00    -0.153 OA
BRANCH  10  13
ATOM     13  N   UNL     1     -30.577 -12.949  14.576  0.00  0.00    -0.187 NA
ATOM     14  H   UNL     1     -29.707 -12.881  14.000  0.00  0.00    +0.148 HD
BRANCH  13  15
ATOM     15  C   UNL     1     -31.603 -13.563  13.738  0.00  0.00    +0.077 C 
ATOM     16  C   UNL     1     -31.804 -12.861  12.405  0.00  0.00    +0.022 C 
ATOM     17  C   UNL     1     -31.038 -14.173  12.466  0.00  0.00    +0.022 C 
ENDBRANCH  13  15
ENDBRANCH  10  13
ENDBRANCH   7  10
ENDBRANCH   2   4
BRANCH   2  18
ATOM     18  N   UNL     1     -30.072  -8.780  20.529  0.00  0.00    -0.213 N 
ATOM     19  H   UNL     1     -29.139  -8.312  20.528  0.00  0.00    +0.174 HD
BRANCH  18  20
ATOM     20  C   UNL     1     -31.261  -8.009  20.291  0.00  0.00    +0.088 A 
ATOM     21  C   UNL     1     -31.660  -7.022  21.206  0.00  0.00    +0.029 A 
ATOM     22  C   UNL     1     -32.825  -6.289  20.984  0.00  0.00    +0.022 A 
ATOM     23  C   UNL     1     -33.589  -6.550  19.848  0.00  0.00    +0.113 A 
ATOM     24  N   UNL     1     -33.193  -7.505  18.968  0.00  0.00    -0.238 NA
ATOM     25  C   UNL     1     -32.063  -8.245  19.154  0.00  0.00    +0.145 A 
ATOM     26  N   UNL     1     -31.654  -9.185  18.147  0.00  0.00    -0.298 N 
ATOM     27  H   UNL     1     -30.631  -9.346  18.006  0.00  0.00    +0.154 HD
BRANCH  26  28
ATOM     28  C   UNL     1     -32.559  -9.795  17.209  0.00  0.00    +0.032 A 
ATOM     29  C   UNL     1     -32.416  -9.527  15.838  0.00  0.00    +0.023 A 
ATOM     30  C   UNL     1     -33.270 -10.127  14.907  0.00  0.00    +0.002 A 
ATOM     31  C   UNL     1     -34.264 -11.010  15.336  0.00  0.00    +0.000 A 
ATOM     32  C   UNL     1     -34.402 -11.298  16.695  0.00  0.00    +0.002 A 
ATOM     33  C   UNL     1     -33.550 -10.701  17.630  0.00  0.00    +0.023 A 
ENDBRANCH  26  28
ENDBRANCH  18  20
ENDBRANCH   2  18
TORSDOF 7
ENDMDL
MODEL 3
REMARK VINA RESULT:    -3.730      3.086      5.964
REMARK INTER + INTRA:          -8.038
REMARK INTER:                  -5.952
REMARK INTRA:                  -2.086
REMARK UNBOUND:                -2.781
REMARK  Name = 
REMARK  7 active torsions:
REMARK  status: ('A' for Active; 'I' for Inactive)
REMARK    1  A    between atoms: S_2  and  N_4
REMARK    2  A    between atoms: S_2  and  C_18
REMARK    3  A    between atoms: N_4  and  C_5
REMARK    4  A    between atoms: N_11  and  C_12
REMARK    5  A    between atoms: C_21  and  S_24
REMARK    6  A    between atoms: S_24  and  N_27
REMARK    7  A    between atoms: N_27  and  C_28
REMARK                            x       y       z     vdW  Elec       q    Type
REMARK                         _______ _______ _______ _____ _____    ______ ____
ROOT
ATOM      1  O   UNL     1     -32.014  -9.048  21.371  0.00  0.00    -0.150 OA
ATOM      2  S   UNL     1     -31.169  -9.933  20.498  0.00  0.00    +0.072 S 
ATOM      3  O   UNL     1     -29.808  -9.315  20.344  0.00  0.00    -0.150 OA
ENDROOT
BRANCH   2   4
ATOM      4  C   UNL     1     -31.890 -10.121  18.904  0.00  0.00    +0.109 A 
ATOM      5  C   UNL     1     -31.124  -9.845  17.765  0.00  0.00    +0.031 A 
ATOM      6  C   UNL     1     -31.642 -10.088  16.491  0.00  0.00    +0.030 A 
ATOM      7  C   UNL     1     -32.933 -10.612  16.345  0.00  0.00    +0.105 A 
ATOM      8  C   UNL     1     -33.706 -10.876  17.484  0.00  0.00    +0.030 A 
ATOM      9  C   UNL     1     -33.189 -10.629  18.758  0.00  0.00    +0.031 A 
BRANCH   7  10
ATOM     10  S   UNL     1     -33.534 -11.054  14.750  0.00  0.00    +0.059 S 
ATOM     11  O   UNL     1     -34.042  -9.831  14.037  0.00  0.00    -0.153 OA
ATOM     12  O   UNL     1     -34.670 -12.028  14.897  0.00  0.00    -0.153 OA
BRANCH  10  13
ATOM     13  N   UNL     1     -32.262 -11.791  13.826  0.00  0.00    -0.187 NA
ATOM     14  H   UNL     1     -32.070 -12.720  14.264  0.00  0.00    +0.148 HD
BRANCH  13  15
ATOM     15  C   UNL     1     -32.754 -12.044  12.474  0.00  0.00    +0.077 C 
ATOM     16  C   UNL     1     -32.387 -13.418  11.938  0.00  0.00    +0.022 C 
ATOM     17  C   UNL     1     -33.801 -13.145  12.426  0.00  0.00    +0.022 C 
ENDBRANCH  13  15
ENDBRANCH  10  13
ENDBRANCH   7  10
ENDBRANCH   2   4
BRANCH   2  18
ATOM     18  N   UNL     1     -31.017 -11.496  21.232  0.00  0.00    -0.213 N 
ATOM     19  H   UNL     1     -31.750 -11.780  21.919  0.00  0.00    +0.174 HD
BRANCH  18  20
ATOM     20  C   UNL     1     -29.827 -12.287  21.087  0.00  0.00    +0.088 A 
ATOM     21  C   UNL     1     -28.819 -12.237  22.062  0.00  0.00    +0.029 A 
ATOM     22  C   UNL     1     -27.655 -12.990  21.909  0.00  0.00    +0.022 A 
ATOM     23  C   UNL     1     -27.503 -13.788  20.778  0.00  0.00    +0.113 A 
ATOM     24  N   UNL     1     -28.485 -13.833  19.841  0.00  0.00    -0.238 NA
ATOM     25  C   UNL     1     -29.634 -13.107  19.954  0.00  0.00    +0.145 A 
ATOM     26  N   UNL     1     -30.671 -13.257  18.969  0.00  0.00    -0.298 N 
ATOM     27  H   UNL     1     -31.664 -13.157  19.278  0.00  0.00    +0.154 HD
BRANCH  26  28
ATOM     28  C   UNL     1     -30.433 -13.700  17.621  0.00  0.00    +0.032 A 
ATOM     29  C   UNL     1     -31.490 -14.250  16.878  0.00  0.00    +0.023 A 
ATOM     30  C   UNL     1     -31.287 -14.665  15.559  0.00  0.00    +0.002 A 
ATOM     31  C   UNL     1     -30.031 -14.520  14.964  0.00  0.00    +0.000 A 
ATOM     32  C   UNL     1     -28.978 -13.957  15.688  0.00  0.00    +0.002 A 
ATOM     33  C   UNL     1     -29.176 -13.540  17.008  0.00  0.00    +0.023 A 
ENDBRANCH  26  28
ENDBRANCH  18  20
ENDBRANCH   2  18
TORSDOF 7
ENDMDL
MODEL 4
REMARK VINA RESULT:    -3.176      3.047      6.110
REMARK INTER + INTRA:          -7.257
REMARK INTER:                  -6.013
REMARK INTRA:                  -1.244
REMARK UNBOUND:                -2.781
REMARK  Name = 
REMARK  7 active torsions:
REMARK  status: ('A' for Active; 'I' for Inactive)
REMARK    1  A    between atoms: S_2  and  N_4
REMARK    2  A    between atoms: S_2  and  C_18
REMARK    3  A    between atoms: N_4  and  C_5
REMARK    4  A    between atoms: N_11  and  C_12
REMARK    5  A    between atoms: C_21  and  S_24
REMARK    6  A    between atoms: S_24  and  N_27
REMARK    7  A    between atoms: N_27  and  C_28
REMARK                            x       y       z     vdW  Elec       q    Type
REMARK                         _______ _______ _______ _____ _____    ______ ____
ROOT
ATOM      1  O   UNL     1     -27.340 -10.143  17.762  0.00  0.00    -0.150 OA
ATOM      2  S   UNL     1     -28.330 -11.196  18.173  0.00  0.00    +0.072 S 
ATOM      3  O   UNL     1     -27.723 -12.552  17.954  0.00  0.00    -0.150 OA
ENDROOT
BRANCH   2   4
ATOM      4  C   UNL     1     -29.809 -11.076  17.226  0.00  0.00    +0.109 A 
ATOM      5  C   UNL     1     -30.471 -12.246  16.833  0.00  0.00    +0.031 A 
ATOM      6  C   UNL     1     -31.699 -12.172  16.173  0.00  0.00    +0.030 A 
ATOM      7  C   UNL     1     -32.279 -10.926  15.901  0.00  0.00    +0.105 A 
ATOM      8  C   UNL     1     -31.611  -9.754  16.282  0.00  0.00    +0.030 A 
ATOM      9  C   UNL     1     -30.380  -9.828  16.939  0.00  0.00    +0.031 A 
BRANCH   7  10
ATOM     10  S   UNL     1     -33.891 -10.833  15.200  0.00  0.00    +0.059 S 
ATOM     11  O   UNL     1     -34.026  -9.573  14.391  0.00  0.00    -0.153 OA
ATOM     12  O   UNL     1     -34.914 -10.806  16.301  0.00  0.00    -0.153 OA
BRANCH  10  13
ATOM     13  N   UNL     1     -34.173 -12.217  14.189  0.00  0.00    -0.187 NA
ATOM     14  H   UNL     1     -35.209 -12.341  14.129  0.00  0.00    +0.148 HD
BRANCH  13  15
ATOM     15  C   UNL     1     -33.695 -11.915  12.842  0.00  0.00    +0.077 C 
ATOM     16  C   UNL     1     -32.360 -12.559  12.508  0.00  0.00    +0.022 C 
ATOM     17  C   UNL     1     -33.646 -13.142  11.946  0.00  0.00    +0.022 C 
ENDBRANCH  13  15
ENDBRANCH  10  13
ENDBRANCH   7  10
ENDBRANCH   2   4
BRANCH   2  18
ATOM     18  N   UNL     1     -28.722 -10.999  19.850  0.00  0.00    -0.213 N 
ATOM     19  H   UNL     1     -27.933 -11.002  20.534  0.00  0.00    +0.174 HD
BRANCH  18  20
ATOM     20  C   UNL     1     -30.078 -11.054  20.321  0.00  0.00    +0.088 A 
ATOM     21  C   UNL     1     -30.736 -12.289  20.446  0.00  0.00    +0.029 A 
ATOM     22  C   UNL     1     -32.058 -12.339  20.883  0.00  0.00    +0.022 A 
ATOM     23  C   UNL     1     -32.720 -11.152  21.192  0.00  0.00    +0.113 A 
ATOM     24  N   UNL     1     -32.075  -9.964  21.072  0.00  0.00    -0.238 NA
ATOM     25  C   UNL     1     -30.784  -9.875  20.642  0.00  0.00    +0.145 A 
ATOM     26  N   UNL     1     -30.130  -8.595  20.612  0.00  0.00    -0.298 N 
ATOM     27  H   UNL     1     -29.103  -8.559  20.800  0.00  0.00    +0.154 HD
BRANCH  26  28
ATOM     28  C   UNL     1     -30.831  -7.343  20.502  0.00  0.00    +0.032 A 
ATOM     29  C   UNL     1     -31.950  -7.251  19.658  0.00  0.00    +0.023 A 
ATOM     30  C   UNL     1     -32.660  -6.051  19.553  0.00  0.00    +0.002 A 
ATOM     31  C   UNL     1     -32.269  -4.938  20.302  0.00  0.00    +0.000 A 
ATOM     32  C   UNL     1     -31.171  -5.025  21.160  0.00  0.00    +0.002 A 
ATOM     33  C   UNL     1     -30.456  -6.223  21.267  0.00  0.00    +0.023 A 
ENDBRANCH  26  28
ENDBRANCH  18  20
ENDBRANCH   2  18
TORSDOF 7
ENDMDL
MODEL 5
REMARK VINA RESULT:    -3.044      2.515      4.378
REMARK INTER + INTRA:          -7.071
REMARK INTER:                  -5.475
REMARK INTRA:                  -1.596
REMARK UNBOUND:                -2.781
REMARK  Name = 
REMARK  7 active torsions:
REMARK  status: ('A' for Active; 'I' for Inactive)
REMARK    1  A    between atoms: S_2  and  N_4
REMARK    2  A    between atoms: S_2  and  C_18
REMARK    3  A    between atoms: N_4  and  C_5
REMARK    4  A    between atoms: N_11  and  C_12
REMARK    5  A    between atoms: C_21  and  S_24
REMARK    6  A    between atoms: S_24  and  N_27
REMARK    7  A    between atoms: N_27  and  C_28
REMARK                            x       y       z     vdW  Elec       q    Type
REMARK                         _______ _______ _______ _____ _____    ______ ____
ROOT
ATOM      1  O   UNL     1     -31.987 -11.307  13.634  0.00  0.00    -0.150 OA
ATOM      2  S   UNL     1     -32.754 -11.843  14.809  0.00  0.00    +0.072 S 
ATOM      3  O   UNL     1     -34.224 -11.783  14.504  0.00  0.00    -0.150 OA
ENDROOT
BRANCH   2   4
ATOM      4  C   UNL     1     -32.436 -10.893  16.257  0.00  0.00    +0.109 A 
ATOM      5  C   UNL     1     -33.211 -11.107  17.404  0.00  0.00    +0.031 A 
ATOM      6  C   UNL     1     -32.907 -10.441  18.593  0.00  0.00    +0.030 A 
ATOM      7  C   UNL     1     -31.823  -9.555  18.646  0.00  0.00    +0.105 A 
ATOM      8  C   UNL     1     -31.056  -9.330  17.495  0.00  0.00    +0.030 A 
ATOM      9  C   UNL     1     -31.362  -9.994  16.304  0.00  0.00    +0.031 A 
BRANCH   7  10
ATOM     10  S   UNL     1     -31.351  -8.824  20.177  0.00  0.00    +0.059 S 
ATOM     11  O   UNL     1     -30.079  -8.042  20.001  0.00  0.00    -0.153 OA
ATOM     12  O   UNL     1     -31.111  -9.906  21.193  0.00  0.00    -0.153 OA
BRANCH  10  13
ATOM     13  N   UNL     1     -32.615  -7.777  20.743  0.00  0.00    -0.187 NA
ATOM     14  H   UNL     1     -32.317  -7.421  21.679  0.00  0.00    +0.148 HD
BRANCH  13  15
ATOM     15  C   UNL     1     -32.700  -6.625  19.850  0.00  0.00    +0.077 C 
ATOM     16  C   UNL     1     -34.048  -6.481  19.164  0.00  0.00    +0.022 C 
ATOM     17  C   UNL     1     -33.690  -5.577  20.333  0.00  0.00    +0.022 C 
ENDBRANCH  13  15
ENDBRANCH  10  13
ENDBRANCH   7  10
ENDBRANCH   2   4
BRANCH   2  18
ATOM     18  N   UNL     1     -32.289 -13.486  15.104  0.00  0.00    -0.213 N 
ATOM     19  H   UNL     1     -32.991 -14.114  15.555  0.00  0.00    +0.174 HD
BRANCH  18  20
ATOM     20  C   UNL     1     -30.929 -13.926  14.950  0.00  0.00    +0.088 A 
ATOM     21  C   UNL     1     -30.535 -14.618  13.793  0.00  0.00    +0.029 A 
ATOM     22  C   UNL     1     -29.222 -15.062  13.654  0.00  0.00    +0.022 A 
ATOM     23  C   UNL     1     -28.307 -14.816  14.675  0.00  0.00    +0.113 A 
ATOM     24  N   UNL     1     -28.696 -14.143  15.788  0.00  0.00    -0.238 NA
ATOM     25  C   UNL     1     -29.973 -13.698  15.962  0.00  0.00    +0.145 A 
ATOM     26  N   UNL     1     -30.305 -12.923  17.127  0.00  0.00    -0.298 N 
ATOM     27  H   UNL     1     -31.037 -12.183  17.036  0.00  0.00    +0.154 HD
BRANCH  26  28
ATOM     28  C   UNL     1     -29.575 -12.992  18.365  0.00  0.00    +0.032 A 
ATOM     29  C   UNL     1     -28.216 -12.639  18.386  0.00  0.00    +0.023 A 
ATOM     30  C   UNL     1     -27.493 -12.675  19.582  0.00  0.00    +0.002 A 
ATOM     31  C   UNL     1     -28.125 -13.050  20.770  0.00  0.00    +0.000 A 
ATOM     32  C   UNL     1     -29.481 -13.384  20.765  0.00  0.00    +0.002 A 
ATOM     33  C   UNL     1     -30.208 -13.349  19.570  0.00  0.00    +0.023 A 
ENDBRANCH  26  28
ENDBRANCH  18  20
ENDBRANCH   2  18
TORSDOF 7
ENDMDL
MODEL 6
REMARK VINA RESULT:    -2.965      2.332      4.524
REMARK INTER + INTRA:          -6.960
REMARK INTER:                  -4.954
REMARK INTRA:                  -2.006
REMARK UNBOUND:                -2.781
REMARK  Name = 
REMARK  7 active torsions:
REMARK  status: ('A' for Active; 'I' for Inactive)
REMARK    1  A    between atoms: S_2  and  N_4
REMARK    2  A    between atoms: S_2  and  C_18
REMARK    3  A    between atoms: N_4  and  C_5
REMARK    4  A    between atoms: N_11  and  C_12
REMARK    5  A    between atoms: C_21  and  S_24
REMARK    6  A    between atoms: S_24  and  N_27
REMARK    7  A    between atoms: N_27  and  C_28
REMARK                            x       y       z     vdW  Elec       q    Type
REMARK                         _______ _______ _______ _____ _____    ______ ____
ROOT
ATOM      1  O   UNL     1     -31.214 -10.359  14.734  0.00  0.00    -0.150 OA
ATOM      2  S   UNL     1     -32.559 -10.942  15.066  0.00  0.00    +0.072 S 
ATOM      3  O   UNL     1     -33.561 -10.473  14.050  0.00  0.00    -0.150 OA
ENDROOT
BRANCH   2   4
ATOM      4  C   UNL     1     -33.090 -10.432  16.665  0.00  0.00    +0.109 A 
ATOM      5  C   UNL     1     -33.372 -11.400  17.637  0.00  0.00    +0.031 A 
ATOM      6  C   UNL     1     -33.693 -11.016  18.940  0.00  0.00    +0.030 A 
ATOM      7  C   UNL     1     -33.731  -9.659  19.285  0.00  0.00    +0.105 A 
ATOM      8  C   UNL     1     -33.462  -8.689  18.310  0.00  0.00    +0.030 A 
ATOM      9  C   UNL     1     -33.145  -9.073  17.004  0.00  0.00    +0.031 A 
BRANCH   7  10
ATOM     10  S   UNL     1     -33.993  -9.177  20.959  0.00  0.00    +0.059 S 
ATOM     11  O   UNL     1     -34.777 -10.238  21.681  0.00  0.00    -0.153 OA
ATOM     12  O   UNL     1     -34.780  -7.897  20.991  0.00  0.00    -0.153 OA
BRANCH  10  13
ATOM     13  N   UNL     1     -32.465  -8.933  21.746  0.00  0.00    -0.187 NA
ATOM     14  H   UNL     1     -32.638  -9.014  22.773  0.00  0.00    +0.148 HD
BRANCH  13  15
ATOM     15  C   UNL     1     -31.568 -10.023  21.371  0.00  0.00    +0.077 C 
ATOM     16  C   UNL     1     -30.345  -9.569  20.593  0.00  0.00    +0.022 C 
ATOM     17  C   UNL     1     -30.217  -9.938  22.062  0.00  0.00    +0.022 C 
ENDBRANCH  13  15
ENDBRANCH  10  13
ENDBRANCH   7  10
ENDBRANCH   2   4
BRANCH   2  18
ATOM     18  N   UNL     1     -32.465 -12.672  15.033  0.00  0.00    -0.213 N 
ATOM     19  H   UNL     1     -33.318 -13.208  15.305  0.00  0.00    +0.174 HD
BRANCH  18  20
ATOM     20  C   UNL     1     -31.214 -13.358  14.859  0.00  0.00    +0.088 A 
ATOM     21  C   UNL     1     -30.971 -14.105  13.695  0.00  0.00    +0.029 A 
ATOM     22  C   UNL     1     -29.765 -14.787  13.537  0.00  0.00    +0.022 A 
ATOM     23  C   UNL     1     -28.808 -14.721  14.546  0.00  0.00    +0.113 A 
ATOM     24  N   UNL     1     -29.050 -13.994  15.667  0.00  0.00    -0.238 NA
ATOM     25  C   UNL     1     -30.219 -13.319  15.859  0.00  0.00    +0.145 A 
ATOM     26  N   UNL     1     -30.385 -12.502  17.030  0.00  0.00    -0.298 N 
ATOM     27  H   UNL     1     -30.967 -11.637  16.952  0.00  0.00    +0.154 HD
BRANCH  26  28
ATOM     28  C   UNL     1     -29.666 -12.712  18.258  0.00  0.00    +0.032 A 
ATOM     29  C   UNL     1     -28.335 -12.276  18.362  0.00  0.00    +0.023 A 
ATOM     30  C   UNL     1     -27.625 -12.448  19.554  0.00  0.00    +0.002 A 
ATOM     31  C   UNL     1     -28.241 -13.046  20.656  0.00  0.00    +0.000 A 
ATOM     32  C   UNL     1     -29.570 -13.467  20.570  0.00  0.00    +0.002 A 
ATOM     33  C   UNL     1     -30.285 -13.295  19.379  0.00  0.00    +0.023 A 
ENDBRANCH  26  28
ENDBRANCH  18  20
ENDBRANCH   2  18
TORSDOF 7
ENDMDL
MODEL 7
REMARK VINA RESULT:    -2.832      2.415      7.439
REMARK INTER + INTRA:          -6.773
REMARK INTER:                  -4.293
REMARK INTRA:                  -2.479
REMARK UNBOUND:                -2.781
REMARK  Name = 
REMARK  7 active torsions:
REMARK  status: ('A' for Active; 'I' for Inactive)
REMARK    1  A    between atoms: S_2  and  N_4
REMARK    2  A    between atoms: S_2  and  C_18
REMARK    3  A    between atoms: N_4  and  C_5
REMARK    4  A    between atoms: N_11  and  C_12
REMARK    5  A    between atoms: C_21  and  S_24
REMARK    6  A    between atoms: S_24  and  N_27
REMARK    7  A    between atoms: N_27  and  C_28
REMARK                            x       y       z     vdW  Elec       q    Type
REMARK                         _______ _______ _______ _____ _____    ______ ____
ROOT
ATOM      1  O   UNL     1     -35.062  -9.009  17.265  0.00  0.00    -0.150 OA
ATOM      2  S   UNL     1     -33.685  -9.064  17.866  0.00  0.00    +0.072 S 
ATOM      3  O   UNL     1     -32.926  -7.831  17.464  0.00  0.00    -0.150 OA
ENDROOT
BRANCH   2   4
ATOM      4  C   UNL     1     -32.808 -10.481  17.302  0.00  0.00    +0.109 A 
ATOM      5  C   UNL     1     -31.662 -10.312  16.515  0.00  0.00    +0.031 A 
ATOM      6  C   UNL     1     -30.892 -11.417  16.145  0.00  0.00    +0.030 A 
ATOM      7  C   UNL     1     -31.261 -12.703  16.563  0.00  0.00    +0.105 A 
ATOM      8  C   UNL     1     -32.414 -12.875  17.340  0.00  0.00    +0.030 A 
ATOM      9  C   UNL     1     -33.187 -11.769  17.706  0.00  0.00    +0.031 A 
BRANCH   7  10
ATOM     10  S   UNL     1     -30.216 -14.079  16.221  0.00  0.00    +0.059 S 
ATOM     11  O   UNL     1     -30.249 -15.046  17.371  0.00  0.00    -0.153 OA
ATOM     12  O   UNL     1     -28.803 -13.599  16.040  0.00  0.00    -0.153 OA
BRANCH  10  13
ATOM     13  N   UNL     1     -30.744 -14.870  14.768  0.00  0.00    -0.187 NA
ATOM     14  H   UNL     1     -31.746 -14.607  14.627  0.00  0.00    +0.148 HD
BRANCH  13  15
ATOM     15  C   UNL     1     -29.992 -14.325  13.641  0.00  0.00    +0.077 C 
ATOM     16  C   UNL     1     -30.350 -14.955  12.305  0.00  0.00    +0.022 C 
ATOM     17  C   UNL     1     -30.870 -13.570  12.657  0.00  0.00    +0.022 C 
ENDBRANCH  13  15
ENDBRANCH  10  13
ENDBRANCH   7  10
ENDBRANCH   2   4
BRANCH   2  18
ATOM     18  N   UNL     1     -33.810  -9.132  19.593  0.00  0.00    -0.213 N 
ATOM     19  H   UNL     1     -34.734  -9.394  20.001  0.00  0.00    +0.174 HD
BRANCH  18  20
ATOM     20  C   UNL     1     -32.765  -8.636  20.447  0.00  0.00    +0.088 A 
ATOM     21  C   UNL     1     -32.844  -7.342  20.985  0.00  0.00    +0.029 A 
ATOM     22  C   UNL     1     -31.820  -6.855  21.796  0.00  0.00    +0.022 A 
ATOM     23  C   UNL     1     -30.718  -7.664  22.062  0.00  0.00    +0.113 A 
ATOM     24  N   UNL     1     -30.652  -8.916  21.540  0.00  0.00    -0.238 NA
ATOM     25  C   UNL     1     -31.631  -9.424  20.739  0.00  0.00    +0.145 A 
ATOM     26  N   UNL     1     -31.542 -10.784  20.281  0.00  0.00    -0.298 N 
ATOM     27  H   UNL     1     -32.429 -11.320  20.147  0.00  0.00    +0.154 HD
BRANCH  26  28
ATOM     28  C   UNL     1     -30.303 -11.504  20.155  0.00  0.00    +0.032 A 
ATOM     29  C   UNL     1     -30.182 -12.776  20.738  0.00  0.00    +0.023 A 
ATOM     30  C   UNL     1     -28.995 -13.504  20.608  0.00  0.00    +0.002 A 
ATOM     31  C   UNL     1     -27.924 -12.974  19.884  0.00  0.00    +0.000 A 
ATOM     32  C   UNL     1     -28.041 -11.718  19.284  0.00  0.00    +0.002 A 
ATOM     33  C   UNL     1     -29.227 -10.986  19.411  0.00  0.00    +0.023 A 
ENDBRANCH  26  28
ENDBRANCH  18  20
ENDBRANCH   2  18
TORSDOF 7
ENDMDL
MODEL 8
REMARK VINA RESULT:    -2.765      2.981      5.373
REMARK INTER + INTRA:          -6.678
REMARK INTER:                  -4.961
REMARK INTRA:                  -1.717
REMARK UNBOUND:                -2.781
REMARK  Name = 
REMARK  7 active torsions:
REMARK  status: ('A' for Active; 'I' for Inactive)
REMARK    1  A    between atoms: S_2  and  N_4
REMARK    2  A    between atoms: S_2  and  C_18
REMARK    3  A    between atoms: N_4  and  C_5
REMARK    4  A    between atoms: N_11  and  C_12
REMARK    5  A    between atoms: C_21  and  S_24
REMARK    6  A    between atoms: S_24  and  N_27
REMARK    7  A    between atoms: N_27  and  C_28
REMARK                            x       y       z     vdW  Elec       q    Type
REMARK                         _______ _______ _______ _____ _____    ______ ____
ROOT
ATOM      1  O   UNL     1     -27.970 -12.817  16.980  0.00  0.00    -0.150 OA
ATOM      2  S   UNL     1     -29.253 -13.601  16.970  0.00  0.00    +0.072 S 
ATOM      3  O   UNL     1     -29.127 -14.734  15.992  0.00  0.00    -0.150 OA
ENDROOT
BRANCH   2   4
ATOM      4  C   UNL     1     -30.608 -12.585  16.491  0.00  0.00    +0.109 A 
ATOM      5  C   UNL     1     -31.915 -13.059  16.659  0.00  0.00    +0.031 A 
ATOM      6  C   UNL     1     -33.005 -12.231  16.385  0.00  0.00    +0.030 A 
ATOM      7  C   UNL     1     -32.798 -10.919  15.941  0.00  0.00    +0.105 A 
ATOM      8  C   UNL     1     -31.491 -10.447  15.760  0.00  0.00    +0.030 A 
ATOM      9  C   UNL     1     -30.400 -11.278  16.031  0.00  0.00    +0.031 A 
BRANCH   7  10
ATOM     10  S   UNL     1     -34.165  -9.828  15.733  0.00  0.00    +0.059 S 
ATOM     11  O   UNL     1     -33.675  -8.412  15.606  0.00  0.00    -0.153 OA
ATOM     12  O   UNL     1     -35.062  -9.918  16.935  0.00  0.00    -0.153 OA
BRANCH  10  13
ATOM     13  N   UNL     1     -35.060 -10.273  14.313  0.00  0.00    -0.187 NA
ATOM     14  H   UNL     1     -35.485  -9.395  13.936  0.00  0.00    +0.148 HD
BRANCH  13  15
ATOM     15  C   UNL     1     -34.123 -10.766  13.307  0.00  0.00    +0.077 C 
ATOM     16  C   UNL     1     -34.428 -12.175  12.826  0.00  0.00    +0.022 C 
ATOM     17  C   UNL     1     -34.775 -10.981  11.951  0.00  0.00    +0.022 C 
ENDBRANCH  13  15
ENDBRANCH  10  13
ENDBRANCH   7  10
ENDBRANCH   2   4
BRANCH   2  18
ATOM     18  N   UNL     1     -29.558 -14.232  18.555  0.00  0.00    -0.213 N 
ATOM     19  H   UNL     1     -30.205 -15.048  18.634  0.00  0.00    +0.174 HD
BRANCH  18  20
ATOM     20  C   UNL     1     -29.129 -13.541  19.740  0.00  0.00    +0.088 A 
ATOM     21  C   UNL     1     -28.013 -13.995  20.461  0.00  0.00    +0.029 A 
ATOM     22  C   UNL     1     -27.612 -13.336  21.621  0.00  0.00    +0.022 A 
ATOM     23  C   UNL     1     -28.330 -12.226  22.059  0.00  0.00    +0.113 A 
ATOM     24  N   UNL     1     -29.406 -11.792  21.353  0.00  0.00    -0.238 NA
ATOM     25  C   UNL     1     -29.832 -12.414  20.217  0.00  0.00    +0.145 A 
ATOM     26  N   UNL     1     -30.929 -11.860  19.470  0.00  0.00    -0.298 N 
ATOM     27  H   UNL     1     -30.926 -11.971  18.431  0.00  0.00    +0.154 HD
BRANCH  26  28
ATOM     28  C   UNL     1     -31.944 -11.020  20.048  0.00  0.00    +0.032 A 
ATOM     29  C   UNL     1     -32.114  -9.712  19.566  0.00  0.00    +0.023 A 
ATOM     30  C   UNL     1     -33.110  -8.886  20.097  0.00  0.00    +0.002 A 
ATOM     31  C   UNL     1     -33.953  -9.364  21.103  0.00  0.00    +0.000 A 
ATOM     32  C   UNL     1     -33.805 -10.670  21.576  0.00  0.00    +0.002 A 
ATOM     33  C   UNL     1     -32.810 -11.500  21.048  0.00  0.00    +0.023 A 
ENDBRANCH  26  28
ENDBRANCH  18  20
ENDBRANCH   2  18
TORSDOF 7
ENDMDL
MODEL 9
REMARK VINA RESULT:    -2.031      3.012      5.057
REMARK INTER + INTRA:          -5.643
REMARK INTER:                  -3.822
REMARK INTRA:                  -1.822
REMARK UNBOUND:                -2.781
REMARK  Name = 
REMARK  7 active torsions:
REMARK  status: ('A' for Active; 'I' for Inactive)
REMARK    1  A    between atoms: S_2  and  N_4
REMARK    2  A    between atoms: S_2  and  C_18
REMARK    3  A    between atoms: N_4  and  C_5
REMARK    4  A    between atoms: N_11  and  C_12
REMARK    5  A    between atoms: C_21  and  S_24
REMARK    6  A    between atoms: S_24  and  N_27
REMARK    7  A    between atoms: N_27  and  C_28
REMARK                            x       y       z     vdW  Elec       q    Type
REMARK                         _______ _______ _______ _____ _____    ______ ____
ROOT
ATOM      1  O   UNL     1     -28.032 -12.811  17.007  0.00  0.00    -0.150 OA
ATOM      2  S   UNL     1     -29.324 -13.573  17.095  0.00  0.00    +0.072 S 
ATOM      3  O   UNL     1     -29.322 -14.664  16.063  0.00  0.00    -0.150 OA
ENDROOT
BRANCH   2   4
ATOM      4  C   UNL     1     -30.701 -12.516  16.802  0.00  0.00    +0.109 A 
ATOM      5  C   UNL     1     -30.498 -11.134  16.701  0.00  0.00    +0.031 A 
ATOM      6  C   UNL     1     -31.557 -10.289  16.365  0.00  0.00    +0.030 A 
ATOM      7  C   UNL     1     -32.831 -10.820  16.124  0.00  0.00    +0.105 A 
ATOM      8  C   UNL     1     -33.039 -12.201  16.237  0.00  0.00    +0.030 A 
ATOM      9  C   UNL     1     -31.979 -13.046  16.578  0.00  0.00    +0.031 A 
BRANCH   7  10
ATOM     10  S   UNL     1     -34.133  -9.776  15.561  0.00  0.00    +0.059 S 
ATOM     11  O   UNL     1     -35.020 -10.531  14.610  0.00  0.00    -0.153 OA
ATOM     12  O   UNL     1     -33.548  -8.597  14.835  0.00  0.00    -0.153 OA
BRANCH  10  13
ATOM     13  N   UNL     1     -35.062  -9.214  16.916  0.00  0.00    -0.187 NA
ATOM     14  H   UNL     1     -34.853  -9.856  17.713  0.00  0.00    +0.148 HD
BRANCH  13  15
ATOM     15  C   UNL     1     -34.582  -7.887  17.292  0.00  0.00    +0.077 C 
ATOM     16  C   UNL     1     -34.804  -7.549  18.757  0.00  0.00    +0.022 C 
ATOM     17  C   UNL     1     -33.418  -7.938  18.267  0.00  0.00    +0.022 C 
ENDBRANCH  13  15
ENDBRANCH  10  13
ENDBRANCH   7  10
ENDBRANCH   2   4
BRANCH   2  18
ATOM     18  N   UNL     1     -29.479 -14.269  18.675  0.00  0.00    -0.213 N 
ATOM     19  H   UNL     1     -30.196 -15.017  18.805  0.00  0.00    +0.174 HD
BRANCH  18  20
ATOM     20  C   UNL     1     -28.820 -13.702  19.819  0.00  0.00    +0.088 A 
ATOM     21  C   UNL     1     -27.674 -14.313  20.352  0.00  0.00    +0.029 A 
ATOM     22  C   UNL     1     -27.048 -13.773  21.474  0.00  0.00    +0.022 A 
ATOM     23  C   UNL     1     -27.574 -12.625  22.062  0.00  0.00    +0.113 A 
ATOM     24  N   UNL     1     -28.681 -12.039  21.538  0.00  0.00    -0.238 NA
ATOM     25  C   UNL     1     -29.323 -12.542  20.445  0.00  0.00    +0.145 A 
ATOM     26  N   UNL     1     -30.443 -11.832  19.889  0.00  0.00    -0.298 N 
ATOM     27  H   UNL     1     -30.594 -11.876  18.856  0.00  0.00    +0.154 HD
BRANCH  26  28
ATOM     28  C   UNL     1     -31.272 -10.931  20.646  0.00  0.00    +0.032 A 
ATOM     29  C   UNL     1     -30.886  -9.587  20.780  0.00  0.00    +0.023 A 
ATOM     30  C   UNL     1     -31.687  -8.688  21.491  0.00  0.00    +0.002 A 
ATOM     31  C   UNL     1     -32.888  -9.120  22.060  0.00  0.00    +0.000 A 
ATOM     32  C   UNL     1     -33.291 -10.449  21.916  0.00  0.00    +0.002 A 
ATOM     33  C   UNL     1     -32.492 -11.352  21.206  0.00  0.00    +0.023 A 
ENDBRANCH  26  28
ENDBRANCH  18  20
ENDBRANCH   2  18
TORSDOF 7
ENDMDL
