MODEL 1
REMARK VINA RESULT:    -4.366      0.000      0.000
REMARK INTER + INTRA:          -6.429
REMARK INTER:                  -5.642
REMARK INTRA:                  -0.787
REMARK UNBOUND:                -0.787
REMARK  Name = 
REMARK  6 active torsions:
REMARK  status: ('A' for Active; 'I' for Inactive)
REMARK    1  A    between atoms: C_1  and  N_2
REMARK    2  A    between atoms: N_2  and  S_3
REMARK    3  A    between atoms: S_3  and  C_6
REMARK    4  A    between atoms: C_11  and  C_13
REMARK    5  A    between atoms: C_15  and  C_21
REMARK    6  A    between atoms: C_17  and  C_18
REMARK                            x       y       z     vdW  Elec       q    Type
REMARK                         _______ _______ _______ _____ _____    ______ ____
ROOT
ATOM      1  C   UNL     1     -29.712 -10.746  18.231  0.00  0.00    +0.167 A 
ATOM      2  N   UNL     1     -28.873 -11.790  18.374  0.00  0.00    -0.204 NA
ATOM      3  C   UNL     1     -28.594 -11.802  19.695  0.00  0.00    +0.228 A 
ATOM      4  O   UNL     1     -29.213 -10.843  20.350  0.00  0.00    -0.439 OA
ATOM      5  C   UNL     1     -29.911 -10.168  19.472  0.00  0.00    +0.141 A 
ENDROOT
BRANCH   1  11
ATOM      6  C   UNL     1     -33.468 -11.354  15.137  0.00  0.00    +0.167 C 
ATOM      7  C   UNL     1     -33.147 -12.624  15.924  0.00  0.00    +0.048 C 
ATOM      8  C   UNL     1     -32.113 -12.198  16.958  0.00  0.00    +0.110 C 
ATOM      9  N   UNL     1     -31.531 -10.966  16.444  0.00  0.00    -0.294 N 
ATOM     10  C   UNL     1     -32.222 -10.482  15.260  0.00  0.00    +0.136 C 
ATOM     11  C   UNL     1     -30.333 -10.342  16.947  0.00  0.00    +0.268 C 
ATOM     12  O   UNL     1     -29.800  -9.415  16.279  0.00  0.00    -0.268 OA
BRANCH   6  13
ATOM     13  S   UNL     1     -33.908 -11.679  13.426  0.00  0.00    +0.034 S 
ATOM     14  O   UNL     1     -34.589 -10.477  12.829  0.00  0.00    -0.158 OA
ATOM     15  O   UNL     1     -34.863 -12.839  13.391  0.00  0.00    -0.158 OA
BRANCH  13  17
ATOM     16  C   UNL     1     -32.633 -13.448  11.938  0.00  0.00    +0.127 C 
ATOM     17  N   UNL     1     -32.493 -12.109  12.505  0.00  0.00    -0.197 NA
ATOM     18  H   UNL     1     -32.416 -11.431  11.713  0.00  0.00    +0.147 HD
ENDBRANCH  13  17
ENDBRANCH   6  13
ENDBRANCH   1  11
BRANCH   3  19
ATOM     19  C   UNL     1     -27.695 -12.783  20.334  0.00  0.00    +0.037 A 
ATOM     20  C   UNL     1     -26.380 -12.949  19.863  0.00  0.00    +0.013 A 
ATOM     21  C   UNL     1     -25.527 -13.877  20.466  0.00  0.00    +0.001 A 
ATOM     22  C   UNL     1     -25.977 -14.648  21.542  0.00  0.00    +0.000 A 
ATOM     23  C   UNL     1     -27.281 -14.490  22.016  0.00  0.00    +0.001 A 
ATOM     24  C   UNL     1     -28.138 -13.563  21.417  0.00  0.00    +0.013 A 
ENDBRANCH   3  19
BRANCH   5  25
ATOM     25  C   UNL     1     -30.778  -8.992  19.809  0.00  0.00    +0.058 C 
ATOM     26  C   UNL     1     -32.107  -9.345  20.459  0.00  0.00    +0.012 C 
ATOM     27  C   UNL     1     -30.981  -8.768  21.300  0.00  0.00    +0.012 C 
ENDBRANCH   5  25
TORSDOF 5
ENDMDL
MODEL 2
REMARK VINA RESULT:    -3.931      3.925      6.694
REMARK INTER + INTRA:          -5.867
REMARK INTER:                  -5.279
REMARK INTRA:                  -0.587
REMARK UNBOUND:                -0.787
REMARK  Name = 
REMARK  6 active torsions:
REMARK  status: ('A' for Active; 'I' for Inactive)
REMARK    1  A    between atoms: C_1  and  N_2
REMARK    2  A    between atoms: N_2  and  S_3
REMARK    3  A    between atoms: S_3  and  C_6
REMARK    4  A    between atoms: C_11  and  C_13
REMARK    5  A    between atoms: C_15  and  C_21
REMARK    6  A    between atoms: C_17  and  C_18
REMARK                            x       y       z     vdW  Elec       q    Type
REMARK                         _______ _______ _______ _____ _____    ______ ____
ROOT
ATOM      1  C   UNL     1     -31.493 -12.525  18.614  0.00  0.00    +0.167 A 
ATOM      2  N   UNL     1     -31.583 -12.698  17.281  0.00  0.00    -0.204 NA
ATOM      3  C   UNL     1     -30.491 -13.432  16.975  0.00  0.00    +0.228 A 
ATOM      4  O   UNL     1     -29.760 -13.712  18.032  0.00  0.00    -0.439 OA
ATOM      5  C   UNL     1     -30.350 -13.163  19.064  0.00  0.00    +0.141 A 
ENDROOT
BRANCH   1  11
ATOM      6  C   UNL     1     -33.662  -8.232  19.570  0.00  0.00    +0.167 C 
ATOM      7  C   UNL     1     -32.224  -8.065  19.077  0.00  0.00    +0.048 C 
ATOM      8  C   UNL     1     -31.789  -9.459  18.645  0.00  0.00    +0.110 C 
ATOM      9  N   UNL     1     -32.688 -10.379  19.328  0.00  0.00    -0.294 N 
ATOM     10  C   UNL     1     -33.761  -9.686  20.022  0.00  0.00    +0.136 C 
ATOM     11  C   UNL     1     -32.495 -11.802  19.433  0.00  0.00    +0.268 C 
ATOM     12  O   UNL     1     -33.208 -12.459  20.239  0.00  0.00    -0.268 OA
BRANCH   6  13
ATOM     13  S   UNL     1     -34.095  -7.079  20.877  0.00  0.00    +0.034 S 
ATOM     14  O   UNL     1     -35.062  -7.723  21.835  0.00  0.00    -0.158 OA
ATOM     15  O   UNL     1     -34.760  -5.883  20.256  0.00  0.00    -0.158 OA
BRANCH  13  17
ATOM     16  C   UNL     1     -32.572  -5.080  21.685  0.00  0.00    +0.127 C 
ATOM     17  N   UNL     1     -32.665  -6.538  21.711  0.00  0.00    -0.197 NA
ATOM     18  H   UNL     1     -32.753  -6.837  22.709  0.00  0.00    +0.147 HD
ENDBRANCH  13  17
ENDBRANCH   6  13
ENDBRANCH   1  11
BRANCH   3  19
ATOM     19  C   UNL     1     -30.155 -13.870  15.606  0.00  0.00    +0.037 A 
ATOM     20  C   UNL     1     -31.010 -13.557  14.534  0.00  0.00    +0.013 A 
ATOM     21  C   UNL     1     -30.694 -13.971  13.237  0.00  0.00    +0.001 A 
ATOM     22  C   UNL     1     -29.526 -14.702  12.998  0.00  0.00    +0.000 A 
ATOM     23  C   UNL     1     -28.672 -15.017  14.057  0.00  0.00    +0.001 A 
ATOM     24  C   UNL     1     -28.982 -14.605  15.356  0.00  0.00    +0.013 A 
ENDBRANCH   3  19
BRANCH   5  25
ATOM     25  C   UNL     1     -29.845 -13.256  20.473  0.00  0.00    +0.058 C 
ATOM     26  C   UNL     1     -28.336 -13.405  20.600  0.00  0.00    +0.012 C 
ATOM     27  C   UNL     1     -28.995 -12.073  20.913  0.00  0.00    +0.012 C 
ENDBRANCH   5  25
TORSDOF 5
ENDMDL
MODEL 3
REMARK VINA RESULT:    -3.915      3.153      7.878
REMARK INTER + INTRA:          -5.847
REMARK INTER:                  -5.351
REMARK INTRA:                  -0.496
REMARK UNBOUND:                -0.787
REMARK  Name = 
REMARK  6 active torsions:
REMARK  status: ('A' for Active; 'I' for Inactive)
REMARK    1  A    between atoms: C_1  and  N_2
REMARK    2  A    between atoms: N_2  and  S_3
REMARK    3  A    between atoms: S_3  and  C_6
REMARK    4  A    between atoms: C_11  and  C_13
REMARK    5  A    between atoms: C_15  and  C_21
REMARK    6  A    between atoms: C_17  and  C_18
REMARK                            x       y       z     vdW  Elec       q    Type
REMARK                         _______ _______ _______ _____ _____    ______ ____
ROOT
ATOM      1  C   UNL     1     -31.644  -9.805  18.161  0.00  0.00    +0.167 A 
ATOM      2  N   UNL     1     -31.883 -10.220  16.902  0.00  0.00    -0.204 NA
ATOM      3  C   UNL     1     -33.079  -9.669  16.601  0.00  0.00    +0.228 A 
ATOM      4  O   UNL     1     -33.565  -8.950  17.589  0.00  0.00    -0.439 OA
ATOM      5  C   UNL     1     -32.703  -9.015  18.572  0.00  0.00    +0.141 A 
ENDROOT
BRANCH   1  11
ATOM      6  C   UNL     1     -28.580 -13.316  19.688  0.00  0.00    +0.167 C 
ATOM      7  C   UNL     1     -30.013 -13.821  19.524  0.00  0.00    +0.048 C 
ATOM      8  C   UNL     1     -30.764 -12.673  18.861  0.00  0.00    +0.110 C 
ATOM      9  N   UNL     1     -29.970 -11.481  19.129  0.00  0.00    -0.294 N 
ATOM     10  C   UNL     1     -28.698 -11.796  19.757  0.00  0.00    +0.136 C 
ATOM     11  C   UNL     1     -30.417 -10.126  18.927  0.00  0.00    +0.268 C 
ATOM     12  O   UNL     1     -29.736  -9.180  19.409  0.00  0.00    -0.268 OA
BRANCH   6  13
ATOM     13  S   UNL     1     -27.753 -14.003  21.127  0.00  0.00    +0.034 S 
ATOM     14  O   UNL     1     -28.745 -14.732  21.994  0.00  0.00    -0.158 OA
ATOM     15  O   UNL     1     -27.162 -12.873  21.922  0.00  0.00    -0.158 OA
BRANCH  13  17
ATOM     16  C   UNL     1     -25.162 -14.428  20.858  0.00  0.00    +0.127 C 
ATOM     17  N   UNL     1     -26.460 -15.062  20.639  0.00  0.00    -0.197 NA
ATOM     18  H   UNL     1     -26.508 -15.914  21.244  0.00  0.00    +0.147 HD
ENDBRANCH  13  17
ENDBRANCH   6  13
ENDBRANCH   1  11
BRANCH   3  19
ATOM     19  C   UNL     1     -33.764  -9.852  15.306  0.00  0.00    +0.037 A 
ATOM     20  C   UNL     1     -33.778 -11.114  14.686  0.00  0.00    +0.013 A 
ATOM     21  C   UNL     1     -34.426 -11.290  13.460  0.00  0.00    +0.001 A 
ATOM     22  C   UNL     1     -35.062 -10.210  12.842  0.00  0.00    +0.000 A 
ATOM     23  C   UNL     1     -35.053  -8.953  13.450  0.00  0.00    +0.001 A 
ATOM     24  C   UNL     1     -34.407  -8.772  14.676  0.00  0.00    +0.013 A 
ENDBRANCH   3  19
BRANCH   5  25
ATOM     25  C   UNL     1     -32.871  -8.320  19.890  0.00  0.00    +0.058 C 
ATOM     26  C   UNL     1     -32.714  -6.808  19.837  0.00  0.00    +0.012 C 
ATOM     27  C   UNL     1     -34.096  -7.422  19.973  0.00  0.00    +0.012 C 
ENDBRANCH   5  25
TORSDOF 5
ENDMDL
MODEL 4
REMARK VINA RESULT:    -3.684      3.793      5.638
REMARK INTER + INTRA:          -5.547
REMARK INTER:                  -4.819
REMARK INTRA:                  -0.728
REMARK UNBOUND:                -0.787
REMARK  Name = 
REMARK  6 active torsions:
REMARK  status: ('A' for Active; 'I' for Inactive)
REMARK    1  A    between atoms: C_1  and  N_2
REMARK    2  A    between atoms: N_2  and  S_3
REMARK    3  A    between atoms: S_3  and  C_6
REMARK    4  A    between atoms: C_11  and  C_13
REMARK    5  A    between atoms: C_15  and  C_21
REMARK    6  A    between atoms: C_17  and  C_18
REMARK                            x       y       z     vdW  Elec       q    Type
REMARK                         _______ _______ _______ _____ _____    ______ ____
ROOT
ATOM      1  C   UNL     1     -31.045 -12.243  19.795  0.00  0.00    +0.167 A 
ATOM      2  N   UNL     1     -29.980 -12.364  20.611  0.00  0.00    -0.204 NA
ATOM      3  C   UNL     1     -29.118 -13.129  19.907  0.00  0.00    +0.228 A 
ATOM      4  O   UNL     1     -29.592 -13.467  18.727  0.00  0.00    -0.439 OA
ATOM      5  C   UNL     1     -30.785 -12.938  18.627  0.00  0.00    +0.141 A 
ENDROOT
BRANCH   1  11
ATOM      6  C   UNL     1     -33.191  -7.835  19.704  0.00  0.00    +0.167 C 
ATOM      7  C   UNL     1     -31.672  -7.743  19.850  0.00  0.00    +0.048 C 
ATOM      8  C   UNL     1     -31.169  -9.168  19.656  0.00  0.00    +0.110 C 
ATOM      9  N   UNL     1     -32.316 -10.026  19.918  0.00  0.00    -0.294 N 
ATOM     10  C   UNL     1     -33.543  -9.267  20.095  0.00  0.00    +0.136 C 
ATOM     11  C   UNL     1     -32.257 -11.452  20.114  0.00  0.00    +0.268 C 
ATOM     12  O   UNL     1     -33.273 -12.051  20.561  0.00  0.00    -0.268 OA
BRANCH   6  13
ATOM     13  S   UNL     1     -34.066  -6.620  20.697  0.00  0.00    +0.034 S 
ATOM     14  O   UNL     1     -33.089  -5.827  21.524  0.00  0.00    -0.158 OA
ATOM     15  O   UNL     1     -35.000  -7.346  21.623  0.00  0.00    -0.158 OA
BRANCH  13  17
ATOM     16  C   UNL     1     -35.035  -6.066  18.306  0.00  0.00    +0.127 C 
ATOM     17  N   UNL     1     -35.012  -5.570  19.680  0.00  0.00    -0.197 NA
ATOM     18  H   UNL     1     -35.992  -5.582  20.042  0.00  0.00    +0.147 HD
ENDBRANCH  13  17
ENDBRANCH   6  13
ENDBRANCH   1  11
BRANCH   3  19
ATOM     19  C   UNL     1     -27.790 -13.539  20.406  0.00  0.00    +0.037 A 
ATOM     20  C   UNL     1     -27.682 -14.293  21.588  0.00  0.00    +0.013 A 
ATOM     21  C   UNL     1     -26.426 -14.682  22.062  0.00  0.00    +0.001 A 
ATOM     22  C   UNL     1     -25.269 -14.323  21.364  0.00  0.00    +0.000 A 
ATOM     23  C   UNL     1     -25.368 -13.574  20.189  0.00  0.00    +0.001 A 
ATOM     24  C   UNL     1     -26.621 -13.182  19.710  0.00  0.00    +0.013 A 
ENDBRANCH   3  19
BRANCH   5  25
ATOM     25  C   UNL     1     -31.669 -13.074  17.423  0.00  0.00    +0.058 C 
ATOM     26  C   UNL     1     -31.053 -12.587  16.121  0.00  0.00    +0.012 C 
ATOM     27  C   UNL     1     -31.174 -14.076  16.392  0.00  0.00    +0.012 C 
ENDBRANCH   5  25
TORSDOF 5
ENDMDL
MODEL 5
REMARK VINA RESULT:    -3.646      4.352      7.251
REMARK INTER + INTRA:          -5.499
REMARK INTER:                  -5.076
REMARK INTRA:                  -0.422
REMARK UNBOUND:                -0.787
REMARK  Name = 
REMARK  6 active torsions:
REMARK  status: ('A' for Active; 'I' for Inactive)
REMARK    1  A    between atoms: C_1  and  N_2
REMARK    2  A    between atoms: N_2  and  S_3
REMARK    3  A    between atoms: S_3  and  C_6
REMARK    4  A    between atoms: C_11  and  C_13
REMARK    5  A    between atoms: C_15  and  C_21
REMARK    6  A    between atoms: C_17  and  C_18
REMARK                            x       y       z     vdW  Elec       q    Type
REMARK                         _______ _______ _______ _____ _____    ______ ____
ROOT
ATOM      1  C   UNL     1     -33.168 -11.925  15.456  0.00  0.00    +0.167 A 
ATOM      2  N   UNL     1     -31.974 -12.532  15.605  0.00  0.00    -0.204 NA
ATOM      3  C   UNL     1     -31.662 -12.941  14.356  0.00  0.00    +0.228 A 
ATOM      4  O   UNL     1     -32.582 -12.616  13.474  0.00  0.00    -0.439 OA
ATOM      5  C   UNL     1     -33.530 -11.988  14.122  0.00  0.00    +0.141 A 
ENDROOT
BRANCH   1  11
ATOM      6  C   UNL     1     -33.264  -8.273  18.728  0.00  0.00    +0.167 C 
ATOM      7  C   UNL     1     -31.842  -8.726  18.398  0.00  0.00    +0.048 C 
ATOM      8  C   UNL     1     -31.996  -9.703  17.239  0.00  0.00    +0.110 C 
ATOM      9  N   UNL     1     -33.381 -10.150  17.287  0.00  0.00    -0.294 N 
ATOM     10  C   UNL     1     -34.163  -9.417  18.269  0.00  0.00    +0.136 C 
ATOM     11  C   UNL     1     -33.915 -11.271  16.556  0.00  0.00    +0.268 C 
ATOM     12  O   UNL     1     -35.062 -11.704  16.853  0.00  0.00    -0.268 OA
BRANCH   6  13
ATOM     13  S   UNL     1     -33.491  -7.881  20.466  0.00  0.00    +0.034 S 
ATOM     14  O   UNL     1     -34.433  -8.869  21.100  0.00  0.00    -0.158 OA
ATOM     15  O   UNL     1     -34.094  -6.508  20.570  0.00  0.00    -0.158 OA
BRANCH  13  17
ATOM     16  C   UNL     1     -31.588  -6.507  21.674  0.00  0.00    +0.127 C 
ATOM     17  N   UNL     1     -31.958  -7.868  21.292  0.00  0.00    -0.197 NA
ATOM     18  H   UNL     1     -32.069  -8.428  22.168  0.00  0.00    +0.147 HD
ENDBRANCH  13  17
ENDBRANCH   6  13
ENDBRANCH   1  11
BRANCH   3  19
ATOM     19  C   UNL     1     -30.425 -13.673  14.019  0.00  0.00    +0.037 A 
ATOM     20  C   UNL     1     -29.531 -14.056  15.034  0.00  0.00    +0.013 A 
ATOM     21  C   UNL     1     -28.358 -14.749  14.717  0.00  0.00    +0.001 A 
ATOM     22  C   UNL     1     -28.067 -15.062  13.387  0.00  0.00    +0.000 A 
ATOM     23  C   UNL     1     -28.950 -14.686  12.372  0.00  0.00    +0.001 A 
ATOM     24  C   UNL     1     -30.123 -13.994  12.683  0.00  0.00    +0.013 A 
ENDBRANCH   3  19
BRANCH   5  25
ATOM     25  C   UNL     1     -34.767 -11.435  13.480  0.00  0.00    +0.058 C 
ATOM     26  C   UNL     1     -34.709  -9.948  13.161  0.00  0.00    +0.012 C 
ATOM     27  C   UNL     1     -34.574 -10.970  12.045  0.00  0.00    +0.012 C 
ENDBRANCH   5  25
TORSDOF 5
ENDMDL
MODEL 6
REMARK VINA RESULT:    -3.512      3.725      6.825
REMARK INTER + INTRA:          -5.325
REMARK INTER:                  -5.560
REMARK INTRA:                   0.235
REMARK UNBOUND:                -0.787
REMARK  Name = 
REMARK  6 active torsions:
REMARK  status: ('A' for Active; 'I' for Inactive)
REMARK    1  A    between atoms: C_1  and  N_2
REMARK    2  A    between atoms: N_2  and  S_3
REMARK    3  A    between atoms: S_3  and  C_6
REMARK    4  A    between atoms: C_11  and  C_13
REMARK    5  A    between atoms: C_15  and  C_21
REMARK    6  A    between atoms: C_17  and  C_18
REMARK                            x       y       z     vdW  Elec       q    Type
REMARK                         _______ _______ _______ _____ _____    ______ ____
ROOT
ATOM      1  C   UNL     1     -29.103 -11.939  19.092  0.00  0.00    +0.167 A 
ATOM      2  N   UNL     1     -29.743 -12.092  17.916  0.00  0.00    -0.204 NA
ATOM      3  C   UNL     1     -29.116 -13.140  17.340  0.00  0.00    +0.228 A 
ATOM      4  O   UNL     1     -28.151 -13.626  18.092  0.00  0.00    -0.439 OA
ATOM      5  C   UNL     1     -28.114 -12.903  19.182  0.00  0.00    +0.141 A 
ENDROOT
BRANCH   1  11
ATOM      6  C   UNL     1     -32.033  -8.191  20.280  0.00  0.00    +0.167 C 
ATOM      7  C   UNL     1     -31.794  -8.292  18.774  0.00  0.00    +0.048 C 
ATOM      8  C   UNL     1     -31.046  -9.605  18.579  0.00  0.00    +0.110 C 
ATOM      9  N   UNL     1     -30.464  -9.920  19.876  0.00  0.00    -0.294 N 
ATOM     10  C   UNL     1     -30.915  -9.011  20.917  0.00  0.00    +0.136 C 
ATOM     11  C   UNL     1     -29.457 -10.923  20.111  0.00  0.00    +0.268 C 
ATOM     12  O   UNL     1     -28.865 -10.946  21.224  0.00  0.00    -0.268 OA
BRANCH   6  13
ATOM     13  S   UNL     1     -32.061  -6.496  20.875  0.00  0.00    +0.034 S 
ATOM     14  O   UNL     1     -33.409  -6.178  21.465  0.00  0.00    -0.158 OA
ATOM     15  O   UNL     1     -31.818  -5.579  19.710  0.00  0.00    -0.158 OA
BRANCH  13  17
ATOM     16  C   UNL     1     -29.727  -5.422  21.479  0.00  0.00    +0.127 C 
ATOM     17  N   UNL     1     -30.797  -6.241  22.045  0.00  0.00    -0.197 NA
ATOM     18  H   UNL     1     -31.213  -5.715  22.847  0.00  0.00    +0.147 HD
ENDBRANCH  13  17
ENDBRANCH   6  13
ENDBRANCH   1  11
BRANCH   3  19
ATOM     19  C   UNL     1     -29.473 -13.681  16.014  0.00  0.00    +0.037 A 
ATOM     20  C   UNL     1     -28.593 -14.549  15.344  0.00  0.00    +0.013 A 
ATOM     21  C   UNL     1     -28.929 -15.062  14.087  0.00  0.00    +0.001 A 
ATOM     22  C   UNL     1     -30.143 -14.714  13.490  0.00  0.00    +0.000 A 
ATOM     23  C   UNL     1     -31.024 -13.854  14.148  0.00  0.00    +0.001 A 
ATOM     24  C   UNL     1     -30.693 -13.338  15.404  0.00  0.00    +0.013 A 
ENDBRANCH   3  19
BRANCH   5  25
ATOM     25  C   UNL     1     -27.158 -13.134  20.315  0.00  0.00    +0.058 C 
ATOM     26  C   UNL     1     -27.600 -14.191  21.316  0.00  0.00    +0.012 C 
ATOM     27  C   UNL     1     -26.504 -14.507  20.313  0.00  0.00    +0.012 C 
ENDBRANCH   5  25
TORSDOF 5
ENDMDL
MODEL 7
REMARK VINA RESULT:    -3.370      3.423      8.456
REMARK INTER + INTRA:          -5.143
REMARK INTER:                  -4.706
REMARK INTRA:                  -0.437
REMARK UNBOUND:                -0.787
REMARK  Name = 
REMARK  6 active torsions:
REMARK  status: ('A' for Active; 'I' for Inactive)
REMARK    1  A    between atoms: C_1  and  N_2
REMARK    2  A    between atoms: N_2  and  S_3
REMARK    3  A    between atoms: S_3  and  C_6
REMARK    4  A    between atoms: C_11  and  C_13
REMARK    5  A    between atoms: C_15  and  C_21
REMARK    6  A    between atoms: C_17  and  C_18
REMARK                            x       y       z     vdW  Elec       q    Type
REMARK                         _______ _______ _______ _____ _____    ______ ____
ROOT
ATOM      1  C   UNL     1     -31.871 -12.371  16.828  0.00  0.00    +0.167 A 
ATOM      2  N   UNL     1     -32.500 -11.226  17.158  0.00  0.00    -0.204 NA
ATOM      3  C   UNL     1     -32.910 -10.728  15.971  0.00  0.00    +0.228 A 
ATOM      4  O   UNL     1     -32.575 -11.499  14.959  0.00  0.00    -0.439 OA
ATOM      5  C   UNL     1     -31.928 -12.523  15.454  0.00  0.00    +0.141 A 
ENDROOT
BRANCH   1  11
ATOM      6  C   UNL     1     -28.762 -12.920  20.580  0.00  0.00    +0.167 C 
ATOM      7  C   UNL     1     -28.336 -11.806  19.625  0.00  0.00    +0.048 C 
ATOM      8  C   UNL     1     -29.501 -11.646  18.657  0.00  0.00    +0.110 C 
ATOM      9  N   UNL     1     -30.247 -12.895  18.734  0.00  0.00    -0.294 N 
ATOM     10  C   UNL     1     -29.754 -13.767  19.788  0.00  0.00    +0.136 C 
ATOM     11  C   UNL     1     -31.271 -13.307  17.808  0.00  0.00    +0.268 C 
ATOM     12  O   UNL     1     -31.679 -14.500  17.839  0.00  0.00    -0.268 OA
BRANCH   6  13
ATOM     13  S   UNL     1     -27.378 -13.887  21.196  0.00  0.00    +0.034 S 
ATOM     14  O   UNL     1     -27.880 -15.036  22.028  0.00  0.00    -0.158 OA
ATOM     15  O   UNL     1     -26.528 -13.002  22.062  0.00  0.00    -0.158 OA
BRANCH  13  17
ATOM     16  C   UNL     1     -24.981 -14.372  20.205  0.00  0.00    +0.127 C 
ATOM     17  N   UNL     1     -26.401 -14.460  19.873  0.00  0.00    -0.197 NA
ATOM     18  H   UNL     1     -26.634 -15.468  19.725  0.00  0.00    +0.147 HD
ENDBRANCH  13  17
ENDBRANCH   6  13
ENDBRANCH   1  11
BRANCH   3  19
ATOM     19  C   UNL     1     -33.652  -9.460  15.826  0.00  0.00    +0.037 A 
ATOM     20  C   UNL     1     -33.675  -8.530  16.881  0.00  0.00    +0.013 A 
ATOM     21  C   UNL     1     -34.377  -7.329  16.746  0.00  0.00    +0.001 A 
ATOM     22  C   UNL     1     -35.062  -7.046  15.561  0.00  0.00    +0.000 A 
ATOM     23  C   UNL     1     -35.045  -7.964  14.509  0.00  0.00    +0.001 A 
ATOM     24  C   UNL     1     -34.344  -9.167  14.638  0.00  0.00    +0.013 A 
ENDBRANCH   3  19
BRANCH   5  25
ATOM     25  C   UNL     1     -31.380 -13.652  14.633  0.00  0.00    +0.058 C 
ATOM     26  C   UNL     1     -31.108 -13.306  13.176  0.00  0.00    +0.012 C 
ATOM     27  C   UNL     1     -29.952 -13.441  14.152  0.00  0.00    +0.012 C 
ENDBRANCH   5  25
TORSDOF 5
ENDMDL
MODEL 8
REMARK VINA RESULT:    -3.259      1.696      2.427
REMARK INTER + INTRA:          -4.999
REMARK INTER:                  -4.383
REMARK INTRA:                  -0.615
REMARK UNBOUND:                -0.787
REMARK  Name = 
REMARK  6 active torsions:
REMARK  status: ('A' for Active; 'I' for Inactive)
REMARK    1  A    between atoms: C_1  and  N_2
REMARK    2  A    between atoms: N_2  and  S_3
REMARK    3  A    between atoms: S_3  and  C_6
REMARK    4  A    between atoms: C_11  and  C_13
REMARK    5  A    between atoms: C_15  and  C_21
REMARK    6  A    between atoms: C_17  and  C_18
REMARK                            x       y       z     vdW  Elec       q    Type
REMARK                         _______ _______ _______ _____ _____    ______ ____
ROOT
ATOM      1  C   UNL     1     -30.877 -12.116  19.343  0.00  0.00    +0.167 A 
ATOM      2  N   UNL     1     -29.890 -13.033  19.372  0.00  0.00    -0.204 NA
ATOM      3  C   UNL     1     -28.997 -12.521  20.245  0.00  0.00    +0.228 A 
ATOM      4  O   UNL     1     -29.385 -11.367  20.744  0.00  0.00    -0.439 OA
ATOM      5  C   UNL     1     -30.543 -11.085  20.203  0.00  0.00    +0.141 A 
ENDROOT
BRANCH   1  11
ATOM      6  C   UNL     1     -32.846 -12.313  14.856  0.00  0.00    +0.167 C 
ATOM      7  C   UNL     1     -31.577 -11.462  14.902  0.00  0.00    +0.048 C 
ATOM      8  C   UNL     1     -31.004 -11.679  16.296  0.00  0.00    +0.110 C 
ATOM      9  N   UNL     1     -32.116 -12.160  17.105  0.00  0.00    -0.294 N 
ATOM     10  C   UNL     1     -33.302 -12.427  16.307  0.00  0.00    +0.136 C 
ATOM     11  C   UNL     1     -32.117 -12.248  18.543  0.00  0.00    +0.268 C 
ATOM     12  O   UNL     1     -33.208 -12.456  19.142  0.00  0.00    -0.268 OA
BRANCH   6  13
ATOM     13  S   UNL     1     -34.118 -11.623  13.792  0.00  0.00    +0.034 S 
ATOM     14  O   UNL     1     -34.995 -12.722  13.255  0.00  0.00    -0.158 OA
ATOM     15  O   UNL     1     -33.449 -10.933  12.636  0.00  0.00    -0.158 OA
BRANCH  13  17
ATOM     16  C   UNL     1     -34.754  -9.093  14.197  0.00  0.00    +0.127 C 
ATOM     17  N   UNL     1     -35.062 -10.444  14.659  0.00  0.00    -0.197 NA
ATOM     18  H   UNL     1     -36.069 -10.633  14.449  0.00  0.00    +0.147 HD
ENDBRANCH  13  17
ENDBRANCH   6  13
ENDBRANCH   1  11
BRANCH   3  19
ATOM     19  C   UNL     1     -27.727 -13.183  20.603  0.00  0.00    +0.037 A 
ATOM     20  C   UNL     1     -27.667 -14.044  21.713  0.00  0.00    +0.013 A 
ATOM     21  C   UNL     1     -26.465 -14.672  22.054  0.00  0.00    +0.001 A 
ATOM     22  C   UNL     1     -25.315 -14.446  21.292  0.00  0.00    +0.000 A 
ATOM     23  C   UNL     1     -25.366 -13.593  20.187  0.00  0.00    +0.001 A 
ATOM     24  C   UNL     1     -26.565 -12.963  19.842  0.00  0.00    +0.013 A 
ENDBRANCH   3  19
BRANCH   5  25
ATOM     25  C   UNL     1     -31.341  -9.853  20.512  0.00  0.00    +0.058 C 
ATOM     26  C   UNL     1     -30.527  -8.571  20.597  0.00  0.00    +0.012 C 
ATOM     27  C   UNL     1     -31.394  -8.840  19.379  0.00  0.00    +0.012 C 
ENDBRANCH   5  25
TORSDOF 5
ENDMDL
