MODEL 1
REMARK VINA RESULT:    -5.455      0.000      0.000
REMARK INTER + INTRA:          -9.203
REMARK INTER:                  -7.847
REMARK INTRA:                  -1.356
REMARK UNBOUND:                -1.356
REMARK  Name = 
REMARK  9 active torsions:
REMARK  status: ('A' for Active; 'I' for Inactive)
REMARK    1  A    between atoms: C_1  and  C_2
REMARK    2  A    between atoms: N_4  and  C_5
REMARK    3  A    between atoms: C_8  and  S_11
REMARK    4  A    between atoms: S_11  and  N_14
REMARK    5  A    between atoms: N_14  and  C_15
REMARK    6  A    between atoms: C_15  and  C_16
REMARK    7  A    between atoms: C_15  and  C_20
REMARK    8  A    between atoms: C_16  and  C_17
REMARK    9  A    between atoms: C_17  and  O_19
REMARK                            x       y       z     vdW  Elec       q    Type
REMARK                         _______ _______ _______ _____ _____    ______ ____
ROOT
ATOM      1  N   UNL     1     -28.235 -13.445  17.568  0.00  0.00    -0.182 NA
ATOM      2  H   UNL     1     -27.501 -13.539  16.834  0.00  0.00    +0.149 HD
ENDROOT
BRANCH   1   3
ATOM      3  S   UNL     1     -27.923 -11.975  18.452  0.00  0.00    +0.059 S 
ATOM      4  O   UNL     1     -26.650 -11.346  17.958  0.00  0.00    -0.153 OA
ATOM      5  O   UNL     1     -27.748 -12.311  19.906  0.00  0.00    -0.153 OA
BRANCH   3   9
ATOM      6  C   UNL     1     -31.419  -9.045  18.074  0.00  0.00    +0.033 A 
ATOM      7  C   UNL     1     -30.805  -9.568  16.920  0.00  0.00    +0.025 A 
ATOM      8  C   UNL     1     -29.728 -10.452  17.032  0.00  0.00    +0.030 A 
ATOM      9  C   UNL     1     -29.260 -10.837  18.297  0.00  0.00    +0.105 A 
ATOM     10  C   UNL     1     -29.885 -10.341  19.446  0.00  0.00    +0.030 A 
ATOM     11  C   UNL     1     -30.962  -9.456  19.335  0.00  0.00    +0.025 A 
BRANCH   6  15
ATOM     12  C   UNL     1     -34.999  -7.521  18.066  0.00  0.00    +0.109 C 
ATOM     13  C   UNL     1     -33.915  -8.551  18.034  0.00  0.00    +0.214 C 
ATOM     14  O   UNL     1     -34.230  -9.769  17.954  0.00  0.00    -0.276 OA
ATOM     15  N   UNL     1     -32.538  -8.143  17.991  0.00  0.00    -0.286 N 
ATOM     16  H   UNL     1     -32.339  -7.136  17.786  0.00  0.00    +0.155 HD
ENDBRANCH   6  15
ENDBRANCH   3   9
ENDBRANCH   1   3
BRANCH   1  17
ATOM     17  C   UNL     1     -29.592 -13.477  16.988  0.00  0.00    +0.118 C 
BRANCH  17  18
ATOM     18  C   UNL     1     -29.621 -13.853  15.503  0.00  0.00    -0.010 A 
ATOM     19  C   UNL     1     -28.586 -14.629  14.936  0.00  0.00    +0.006 A 
ATOM     20  C   UNL     1     -28.609 -14.976  13.583  0.00  0.00    +0.000 A 
ATOM     21  C   UNL     1     -29.670 -14.572  12.775  0.00  0.00    +0.001 A 
ATOM     22  C   UNL     1     -30.720 -13.836  13.321  0.00  0.00    +0.020 A 
ATOM     23  C   UNL     1     -30.714 -13.484  14.677  0.00  0.00    +0.046 A 
ATOM     24 CL   UNL     1     -32.116 -12.609  15.289  0.00  0.00    -0.083 Cl
ENDBRANCH  17  18
BRANCH  17  25
ATOM     25  C   UNL     1     -30.524 -14.380  17.823  0.00  0.00    +0.145 C 
BRANCH  25  26
ATOM     26  C   UNL     1     -31.277 -13.643  18.892  0.00  0.00    +0.307 C 
ATOM     27  O   UNL     1     -32.197 -12.839  18.581  0.00  0.00    -0.251 OA
BRANCH  26  28
ATOM     28  O   UNL     1     -30.945 -13.832  20.231  0.00  0.00    -0.481 OA
ATOM     29  H   UNL     1     -31.621 -14.206  20.886  0.00  0.00    +0.295 HD
ENDBRANCH  26  28
ENDBRANCH  25  26
ENDBRANCH  17  25
ENDBRANCH   1  17
TORSDOF 8
ENDMDL
MODEL 2
REMARK VINA RESULT:    -5.406      3.039      5.998
REMARK INTER + INTRA:          -9.132
REMARK INTER:                  -7.440
REMARK INTRA:                  -1.693
REMARK UNBOUND:                -1.356
REMARK  Name = 
REMARK  9 active torsions:
REMARK  status: ('A' for Active; 'I' for Inactive)
REMARK    1  A    between atoms: C_1  and  C_2
REMARK    2  A    between atoms: N_4  and  C_5
REMARK    3  A    between atoms: C_8  and  S_11
REMARK    4  A    between atoms: S_11  and  N_14
REMARK    5  A    between atoms: N_14  and  C_15
REMARK    6  A    between atoms: C_15  and  C_16
REMARK    7  A    between atoms: C_15  and  C_20
REMARK    8  A    between atoms: C_16  and  C_17
REMARK    9  A    between atoms: C_17  and  O_19
REMARK                            x       y       z     vdW  Elec       q    Type
REMARK                         _______ _______ _______ _____ _____    ______ ____
ROOT
ATOM      1  N   UNL     1     -33.945 -11.422  16.686  0.00  0.00    -0.182 NA
ATOM      2  H   UNL     1     -33.533 -12.379  16.639  0.00  0.00    +0.149 HD
ENDROOT
BRANCH   1   3
ATOM      3  S   UNL     1     -33.222 -10.593  18.038  0.00  0.00    +0.059 S 
ATOM      4  O   UNL     1     -34.289 -10.200  19.021  0.00  0.00    -0.153 OA
ATOM      5  O   UNL     1     -32.556  -9.341  17.541  0.00  0.00    -0.153 OA
BRANCH   3   9
ATOM      6  C   UNL     1     -30.043 -13.164  20.097  0.00  0.00    +0.033 A 
ATOM      7  C   UNL     1     -30.632 -13.595  18.894  0.00  0.00    +0.025 A 
ATOM      8  C   UNL     1     -31.614 -12.819  18.270  0.00  0.00    +0.030 A 
ATOM      9  C   UNL     1     -32.008 -11.596  18.831  0.00  0.00    +0.105 A 
ATOM     10  C   UNL     1     -31.404 -11.150  20.012  0.00  0.00    +0.030 A 
ATOM     11  C   UNL     1     -30.424 -11.925  20.637  0.00  0.00    +0.025 A 
BRANCH   6  15
ATOM     12  C   UNL     1     -26.632 -14.645  21.241  0.00  0.00    +0.109 C 
ATOM     13  C   UNL     1     -27.627 -13.899  20.410  0.00  0.00    +0.214 C 
ATOM     14  O   UNL     1     -27.238 -13.321  19.359  0.00  0.00    -0.276 OA
ATOM     15  N   UNL     1     -29.021 -13.934  20.757  0.00  0.00    -0.286 N 
ATOM     16  H   UNL     1     -29.325 -14.639  21.467  0.00  0.00    +0.155 HD
ENDBRANCH   6  15
ENDBRANCH   3   9
ENDBRANCH   1   3
BRANCH   1  17
ATOM     17  C   UNL     1     -33.768 -10.691  15.416  0.00  0.00    +0.118 C 
BRANCH  17  18
ATOM     18  C   UNL     1     -33.401 -11.589  14.230  0.00  0.00    -0.010 A 
ATOM     19  C   UNL     1     -34.338 -11.845  13.204  0.00  0.00    +0.006 A 
ATOM     20  C   UNL     1     -34.008 -12.662  12.120  0.00  0.00    +0.000 A 
ATOM     21  C   UNL     1     -32.736 -13.224  12.029  0.00  0.00    +0.001 A 
ATOM     22  C   UNL     1     -31.784 -12.956  13.012  0.00  0.00    +0.020 A 
ATOM     23  C   UNL     1     -32.098 -12.135  14.103  0.00  0.00    +0.046 A 
ATOM     24 CL   UNL     1     -30.810 -11.803  15.259  0.00  0.00    -0.083 Cl
ENDBRANCH  17  18
BRANCH  17  25
ATOM     25  C   UNL     1     -35.004  -9.819  15.109  0.00  0.00    +0.145 C 
BRANCH  25  26
ATOM     26  C   UNL     1     -34.684  -8.363  14.930  0.00  0.00    +0.307 C 
ATOM     27  O   UNL     1     -35.062  -7.753  13.893  0.00  0.00    -0.251 OA
BRANCH  26  28
ATOM     28  O   UNL     1     -33.950  -7.689  15.902  0.00  0.00    -0.481 OA
ATOM     29  H   UNL     1     -32.965  -7.884  16.038  0.00  0.00    +0.295 HD
ENDBRANCH  26  28
ENDBRANCH  25  26
ENDBRANCH  17  25
ENDBRANCH   1  17
TORSDOF 8
ENDMDL
MODEL 3
REMARK VINA RESULT:    -5.188      2.748      3.612
REMARK INTER + INTRA:          -8.818
REMARK INTER:                  -6.708
REMARK INTRA:                  -2.110
REMARK UNBOUND:                -1.356
REMARK  Name = 
REMARK  9 active torsions:
REMARK  status: ('A' for Active; 'I' for Inactive)
REMARK    1  A    between atoms: C_1  and  C_2
REMARK    2  A    between atoms: N_4  and  C_5
REMARK    3  A    between atoms: C_8  and  S_11
REMARK    4  A    between atoms: S_11  and  N_14
REMARK    5  A    between atoms: N_14  and  C_15
REMARK    6  A    between atoms: C_15  and  C_16
REMARK    7  A    between atoms: C_15  and  C_20
REMARK    8  A    between atoms: C_16  and  C_17
REMARK    9  A    between atoms: C_17  and  O_19
REMARK                            x       y       z     vdW  Elec       q    Type
REMARK                         _______ _______ _______ _____ _____    ______ ____
ROOT
ATOM      1  N   UNL     1     -29.971 -12.811  15.795  0.00  0.00    -0.182 NA
ATOM      2  H   UNL     1     -30.223 -11.833  15.535  0.00  0.00    +0.149 HD
ENDROOT
BRANCH   1   3
ATOM      3  S   UNL     1     -29.887 -12.897  17.534  0.00  0.00    +0.059 S 
ATOM      4  O   UNL     1     -28.471 -13.166  17.961  0.00  0.00    -0.153 OA
ATOM      5  O   UNL     1     -30.745 -14.037  18.006  0.00  0.00    -0.153 OA
BRANCH   3   9
ATOM      6  C   UNL     1     -31.437  -9.058  19.487  0.00  0.00    +0.033 A 
ATOM      7  C   UNL     1     -31.259  -9.122  18.093  0.00  0.00    +0.025 A 
ATOM      8  C   UNL     1     -30.772 -10.288  17.494  0.00  0.00    +0.030 A 
ATOM      9  C   UNL     1     -30.472 -11.410  18.279  0.00  0.00    +0.105 A 
ATOM     10  C   UNL     1     -30.674 -11.361  19.663  0.00  0.00    +0.030 A 
ATOM     11  C   UNL     1     -31.159 -10.195  20.262  0.00  0.00    +0.025 A 
BRANCH   6  15
ATOM     12  C   UNL     1     -31.781  -5.546  21.126  0.00  0.00    +0.109 C 
ATOM     13  C   UNL     1     -31.136  -6.781  20.581  0.00  0.00    +0.214 C 
ATOM     14  O   UNL     1     -29.879  -6.878  20.610  0.00  0.00    -0.276 OA
ATOM     15  N   UNL     1     -31.948  -7.877  20.131  0.00  0.00    -0.286 N 
ATOM     16  H   UNL     1     -32.965  -7.858  20.378  0.00  0.00    +0.155 HD
ENDBRANCH   6  15
ENDBRANCH   3   9
ENDBRANCH   1   3
BRANCH   1  17
ATOM     17  C   UNL     1     -30.920 -13.788  15.227  0.00  0.00    +0.118 C 
BRANCH  17  18
ATOM     18  C   UNL     1     -31.917 -13.177  14.237  0.00  0.00    -0.010 A 
ATOM     19  C   UNL     1     -31.743 -13.344  12.844  0.00  0.00    +0.006 A 
ATOM     20  C   UNL     1     -32.650 -12.791  11.938  0.00  0.00    +0.000 A 
ATOM     21  C   UNL     1     -33.755 -12.079  12.399  0.00  0.00    +0.001 A 
ATOM     22  C   UNL     1     -33.967 -11.933  13.769  0.00  0.00    +0.020 A 
ATOM     23  C   UNL     1     -33.068 -12.485  14.691  0.00  0.00    +0.046 A 
ATOM     24 CL   UNL     1     -33.456 -12.302  16.401  0.00  0.00    -0.083 Cl
ENDBRANCH  17  18
BRANCH  17  25
ATOM     25  C   UNL     1     -30.170 -14.989  14.614  0.00  0.00    +0.145 C 
BRANCH  25  26
ATOM     26  C   UNL     1     -28.684 -14.791  14.529  0.00  0.00    +0.307 C 
ATOM     27  O   UNL     1     -28.113 -14.743  13.406  0.00  0.00    -0.251 OA
BRANCH  26  28
ATOM     28  O   UNL     1     -27.931 -14.679  15.695  0.00  0.00    -0.481 OA
ATOM     29  H   UNL     1     -28.324 -14.260  16.529  0.00  0.00    +0.295 HD
ENDBRANCH  26  28
ENDBRANCH  25  26
ENDBRANCH  17  25
ENDBRANCH   1  17
TORSDOF 8
ENDMDL
MODEL 4
REMARK VINA RESULT:    -5.113      3.322      4.959
REMARK INTER + INTRA:          -8.710
REMARK INTER:                  -6.762
REMARK INTRA:                  -1.948
REMARK UNBOUND:                -1.356
REMARK  Name = 
REMARK  9 active torsions:
REMARK  status: ('A' for Active; 'I' for Inactive)
REMARK    1  A    between atoms: C_1  and  C_2
REMARK    2  A    between atoms: N_4  and  C_5
REMARK    3  A    between atoms: C_8  and  S_11
REMARK    4  A    between atoms: S_11  and  N_14
REMARK    5  A    between atoms: N_14  and  C_15
REMARK    6  A    between atoms: C_15  and  C_16
REMARK    7  A    between atoms: C_15  and  C_20
REMARK    8  A    between atoms: C_16  and  C_17
REMARK    9  A    between atoms: C_17  and  O_19
REMARK                            x       y       z     vdW  Elec       q    Type
REMARK                         _______ _______ _______ _____ _____    ______ ____
ROOT
ATOM      1  N   UNL     1     -30.601 -11.138  20.553  0.00  0.00    -0.182 NA
ATOM      2  H   UNL     1     -29.963 -10.923  21.348  0.00  0.00    +0.149 HD
ENDROOT
BRANCH   1   3
ATOM      3  S   UNL     1     -30.955  -9.641  19.731  0.00  0.00    +0.059 S 
ATOM      4  O   UNL     1     -29.713  -8.798  19.657  0.00  0.00    -0.153 OA
ATOM      5  O   UNL     1     -31.989  -8.888  20.519  0.00  0.00    -0.153 OA
BRANCH   3   9
ATOM      6  C   UNL     1     -32.611 -10.435  15.539  0.00  0.00    +0.033 A 
ATOM      7  C   UNL     1     -31.250 -10.125  15.715  0.00  0.00    +0.025 A 
ATOM      8  C   UNL     1     -30.744  -9.867  16.993  0.00  0.00    +0.030 A 
ATOM      9  C   UNL     1     -31.587  -9.933  18.112  0.00  0.00    +0.105 A 
ATOM     10  C   UNL     1     -32.934 -10.269  17.943  0.00  0.00    +0.030 A 
ATOM     11  C   UNL     1     -33.442 -10.525  16.666  0.00  0.00    +0.025 A 
BRANCH   6  15
ATOM     12  C   UNL     1     -33.881 -12.225  12.326  0.00  0.00    +0.109 C 
ATOM     13  C   UNL     1     -33.176 -12.019  13.628  0.00  0.00    +0.214 C 
ATOM     14  O   UNL     1     -32.525 -12.975  14.130  0.00  0.00    -0.276 OA
ATOM     15  N   UNL     1     -33.159 -10.718  14.238  0.00  0.00    -0.286 N 
ATOM     16  H   UNL     1     -33.475  -9.907  13.656  0.00  0.00    +0.155 HD
ENDBRANCH   6  15
ENDBRANCH   3   9
ENDBRANCH   1   3
BRANCH   1  17
ATOM     17  C   UNL     1     -30.026 -12.154  19.650  0.00  0.00    +0.118 C 
BRANCH  17  18
ATOM     18  C   UNL     1     -28.728 -12.781  20.172  0.00  0.00    -0.010 A 
ATOM     19  C   UNL     1     -28.754 -13.701  21.244  0.00  0.00    +0.006 A 
ATOM     20  C   UNL     1     -27.574 -14.276  21.723  0.00  0.00    +0.000 A 
ATOM     21  C   UNL     1     -26.352 -13.962  21.132  0.00  0.00    +0.001 A 
ATOM     22  C   UNL     1     -26.307 -13.084  20.049  0.00  0.00    +0.020 A 
ATOM     23  C   UNL     1     -27.482 -12.502  19.555  0.00  0.00    +0.046 A 
ATOM     24 CL   UNL     1     -27.332 -11.457  18.144  0.00  0.00    -0.083 Cl
ENDBRANCH  17  18
BRANCH  17  25
ATOM     25  C   UNL     1     -31.075 -13.228  19.294  0.00  0.00    +0.145 C 
BRANCH  25  26
ATOM     26  C   UNL     1     -30.827 -13.896  17.973  0.00  0.00    +0.307 C 
ATOM     27  O   UNL     1     -31.319 -13.415  16.916  0.00  0.00    -0.251 OA
BRANCH  26  28
ATOM     28  O   UNL     1     -30.068 -15.062  17.916  0.00  0.00    -0.481 OA
ATOM     29  H   UNL     1     -29.852 -15.499  17.027  0.00  0.00    +0.295 HD
ENDBRANCH  26  28
ENDBRANCH  25  26
ENDBRANCH  17  25
ENDBRANCH   1  17
TORSDOF 8
ENDMDL
MODEL 5
REMARK VINA RESULT:    -5.097      2.913      3.832
REMARK INTER + INTRA:          -8.688
REMARK INTER:                  -6.420
REMARK INTRA:                  -2.268
REMARK UNBOUND:                -1.356
REMARK  Name = 
REMARK  9 active torsions:
REMARK  status: ('A' for Active; 'I' for Inactive)
REMARK    1  A    between atoms: C_1  and  C_2
REMARK    2  A    between atoms: N_4  and  C_5
REMARK    3  A    between atoms: C_8  and  S_11
REMARK    4  A    between atoms: S_11  and  N_14
REMARK    5  A    between atoms: N_14  and  C_15
REMARK    6  A    between atoms: C_15  and  C_16
REMARK    7  A    between atoms: C_15  and  C_20
REMARK    8  A    between atoms: C_16  and  C_17
REMARK    9  A    between atoms: C_17  and  O_19
REMARK                            x       y       z     vdW  Elec       q    Type
REMARK                         _______ _______ _______ _____ _____    ______ ____
ROOT
ATOM      1  N   UNL     1     -29.448 -12.735  16.499  0.00  0.00    -0.182 NA
ATOM      2  H   UNL     1     -29.610 -11.770  16.140  0.00  0.00    +0.149 HD
ENDROOT
BRANCH   1   3
ATOM      3  S   UNL     1     -28.913 -12.609  18.154  0.00  0.00    +0.059 S 
ATOM      4  O   UNL     1     -27.417 -12.470  18.193  0.00  0.00    -0.153 OA
ATOM      5  O   UNL     1     -29.288 -13.868  18.883  0.00  0.00    -0.153 OA
BRANCH   3   9
ATOM      6  C   UNL     1     -30.853  -9.033  20.252  0.00  0.00    +0.033 A 
ATOM      7  C   UNL     1     -30.350 -10.110  21.007  0.00  0.00    +0.025 A 
ATOM      8  C   UNL     1     -29.770 -11.210  20.368  0.00  0.00    +0.030 A 
ATOM      9  C   UNL     1     -29.670 -11.242  18.970  0.00  0.00    +0.105 A 
ATOM     10  C   UNL     1     -30.143 -10.161  18.218  0.00  0.00    +0.030 A 
ATOM     11  C   UNL     1     -30.724  -9.061  18.855  0.00  0.00    +0.025 A 
BRANCH   6  15
ATOM     12  C   UNL     1     -31.565  -5.431  21.539  0.00  0.00    +0.109 C 
ATOM     13  C   UNL     1     -30.812  -6.593  20.975  0.00  0.00    +0.214 C 
ATOM     14  O   UNL     1     -29.597  -6.447  20.672  0.00  0.00    -0.276 OA
ATOM     15  N   UNL     1     -31.443  -7.881  20.881  0.00  0.00    -0.286 N 
ATOM     16  H   UNL     1     -32.348  -8.014  21.391  0.00  0.00    +0.155 HD
ENDBRANCH   6  15
ENDBRANCH   3   9
ENDBRANCH   1   3
BRANCH   1  17
ATOM     17  C   UNL     1     -30.652 -13.577  16.359  0.00  0.00    +0.118 C 
BRANCH  17  18
ATOM     18  C   UNL     1     -31.877 -12.822  15.833  0.00  0.00    -0.010 A 
ATOM     19  C   UNL     1     -32.049 -12.605  14.447  0.00  0.00    +0.006 A 
ATOM     20  C   UNL     1     -33.165 -11.919  13.963  0.00  0.00    +0.000 A 
ATOM     21  C   UNL     1     -34.138 -11.453  14.845  0.00  0.00    +0.001 A 
ATOM     22  C   UNL     1     -34.007 -11.688  16.213  0.00  0.00    +0.020 A 
ATOM     23  C   UNL     1     -32.896 -12.378  16.714  0.00  0.00    +0.046 A 
ATOM     24 CL   UNL     1     -32.852 -12.682  18.450  0.00  0.00    -0.083 Cl
ENDBRANCH  17  18
BRANCH  17  25
ATOM     25  C   UNL     1     -30.348 -14.831  15.512  0.00  0.00    +0.145 C 
BRANCH  25  26
ATOM     26  C   UNL     1     -29.009 -14.791  14.835  0.00  0.00    +0.307 C 
ATOM     27  O   UNL     1     -28.933 -14.805  13.577  0.00  0.00    -0.251 OA
BRANCH  26  28
ATOM     28  O   UNL     1     -27.846 -14.757  15.599  0.00  0.00    -0.481 OA
ATOM     29  H   UNL     1     -27.889 -14.756  16.611  0.00  0.00    +0.295 HD
ENDBRANCH  26  28
ENDBRANCH  25  26
ENDBRANCH  17  25
ENDBRANCH   1  17
TORSDOF 8
ENDMDL
MODEL 6
REMARK VINA RESULT:    -4.866      2.575      5.763
REMARK INTER + INTRA:          -8.355
REMARK INTER:                  -5.827
REMARK INTRA:                  -2.528
REMARK UNBOUND:                -1.356
REMARK  Name = 
REMARK  9 active torsions:
REMARK  status: ('A' for Active; 'I' for Inactive)
REMARK    1  A    between atoms: C_1  and  C_2
REMARK    2  A    between atoms: N_4  and  C_5
REMARK    3  A    between atoms: C_8  and  S_11
REMARK    4  A    between atoms: S_11  and  N_14
REMARK    5  A    between atoms: N_14  and  C_15
REMARK    6  A    between atoms: C_15  and  C_16
REMARK    7  A    between atoms: C_15  and  C_20
REMARK    8  A    between atoms: C_16  and  C_17
REMARK    9  A    between atoms: C_17  and  O_19
REMARK                            x       y       z     vdW  Elec       q    Type
REMARK                         _______ _______ _______ _____ _____    ______ ____
ROOT
ATOM      1  N   UNL     1     -31.321 -11.566  20.337  0.00  0.00    -0.182 NA
ATOM      2  H   UNL     1     -32.183 -12.084  20.062  0.00  0.00    +0.149 HD
ENDROOT
BRANCH   1   3
ATOM      3  S   UNL     1     -29.953 -12.604  20.032  0.00  0.00    +0.059 S 
ATOM      4  O   UNL     1     -29.877 -13.666  21.093  0.00  0.00    -0.153 OA
ATOM      5  O   UNL     1     -28.697 -11.782  20.096  0.00  0.00    -0.153 OA
BRANCH   3   9
ATOM      6  C   UNL     1     -30.203 -14.498  15.873  0.00  0.00    +0.033 A 
ATOM      7  C   UNL     1     -31.337 -14.465  16.705  0.00  0.00    +0.025 A 
ATOM      8  C   UNL     1     -31.261 -13.900  17.982  0.00  0.00    +0.030 A 
ATOM      9  C   UNL     1     -30.056 -13.347  18.437  0.00  0.00    +0.105 A 
ATOM     10  C   UNL     1     -28.933 -13.353  17.602  0.00  0.00    +0.030 A 
ATOM     11  C   UNL     1     -29.008 -13.918  16.326  0.00  0.00    +0.025 A 
BRANCH   6  15
ATOM     12  C   UNL     1     -30.440 -14.970  12.018  0.00  0.00    +0.109 C 
ATOM     13  C   UNL     1     -30.534 -14.310  13.357  0.00  0.00    +0.214 C 
ATOM     14  O   UNL     1     -30.950 -13.121  13.426  0.00  0.00    -0.276 OA
ATOM     15  N   UNL     1     -30.254 -15.061  14.549  0.00  0.00    -0.286 N 
ATOM     16  H   UNL     1     -30.180 -16.101  14.458  0.00  0.00    +0.155 HD
ENDBRANCH   6  15
ENDBRANCH   3   9
ENDBRANCH   1   3
BRANCH   1  17
ATOM     17  C   UNL     1     -31.215 -10.273  19.634  0.00  0.00    +0.118 C 
BRANCH  17  18
ATOM     18  C   UNL     1     -31.797 -10.289  18.217  0.00  0.00    -0.010 A 
ATOM     19  C   UNL     1     -33.187 -10.437  18.011  0.00  0.00    +0.006 A 
ATOM     20  C   UNL     1     -33.723 -10.451  16.721  0.00  0.00    +0.000 A 
ATOM     21  C   UNL     1     -32.889 -10.300  15.615  0.00  0.00    +0.001 A 
ATOM     22  C   UNL     1     -31.519 -10.117  15.796  0.00  0.00    +0.020 A 
ATOM     23  C   UNL     1     -30.967 -10.097  17.084  0.00  0.00    +0.046 A 
ATOM     24 CL   UNL     1     -29.235  -9.794  17.213  0.00  0.00    -0.083 Cl
ENDBRANCH  17  18
BRANCH  17  25
ATOM     25  C   UNL     1     -31.819  -9.136  20.485  0.00  0.00    +0.145 C 
BRANCH  25  26
ATOM     26  C   UNL     1     -31.201  -7.793  20.222  0.00  0.00    +0.307 C 
ATOM     27  O   UNL     1     -31.886  -6.870  19.704  0.00  0.00    -0.251 OA
BRANCH  26  28
ATOM     28  O   UNL     1     -29.862  -7.573  20.532  0.00  0.00    -0.481 OA
ATOM     29  H   UNL     1     -29.204  -8.343  20.570  0.00  0.00    +0.295 HD
ENDBRANCH  26  28
ENDBRANCH  25  26
ENDBRANCH  17  25
ENDBRANCH   1  17
TORSDOF 8
ENDMDL
MODEL 7
REMARK VINA RESULT:    -4.679      2.991      5.695
REMARK INTER + INTRA:          -8.086
REMARK INTER:                  -5.651
REMARK INTRA:                  -2.435
REMARK UNBOUND:                -1.356
REMARK  Name = 
REMARK  9 active torsions:
REMARK  status: ('A' for Active; 'I' for Inactive)
REMARK    1  A    between atoms: C_1  and  C_2
REMARK    2  A    between atoms: N_4  and  C_5
REMARK    3  A    between atoms: C_8  and  S_11
REMARK    4  A    between atoms: S_11  and  N_14
REMARK    5  A    between atoms: N_14  and  C_15
REMARK    6  A    between atoms: C_15  and  C_16
REMARK    7  A    between atoms: C_15  and  C_20
REMARK    8  A    between atoms: C_16  and  C_17
REMARK    9  A    between atoms: C_17  and  O_19
REMARK                            x       y       z     vdW  Elec       q    Type
REMARK                         _______ _______ _______ _____ _____    ______ ____
ROOT
ATOM      1  N   UNL     1     -33.973 -10.905  18.364  0.00  0.00    -0.182 NA
ATOM      2  H   UNL     1     -34.072 -11.828  18.837  0.00  0.00    +0.149 HD
ENDROOT
BRANCH   1   3
ATOM      3  S   UNL     1     -32.933  -9.908  19.347  0.00  0.00    +0.059 S 
ATOM      4  O   UNL     1     -33.685  -9.431  20.558  0.00  0.00    -0.153 OA
ATOM      5  O   UNL     1     -32.516  -8.706  18.548  0.00  0.00    -0.153 OA
BRANCH   3   9
ATOM      6  C   UNL     1     -29.189 -12.189  20.664  0.00  0.00    +0.033 A 
ATOM      7  C   UNL     1     -29.079 -10.884  20.149  0.00  0.00    +0.025 A 
ATOM      8  C   UNL     1     -30.219 -10.190  19.732  0.00  0.00    +0.030 A 
ATOM      9  C   UNL     1     -31.485 -10.784  19.839  0.00  0.00    +0.105 A 
ATOM     10  C   UNL     1     -31.601 -12.070  20.377  0.00  0.00    +0.030 A 
ATOM     11  C   UNL     1     -30.462 -12.766  20.793  0.00  0.00    +0.025 A 
BRANCH   6  15
ATOM     12  C   UNL     1     -25.815 -14.120  20.819  0.00  0.00    +0.109 C 
ATOM     13  C   UNL     1     -27.038 -13.482  20.242  0.00  0.00    +0.214 C 
ATOM     14  O   UNL     1     -27.221 -13.523  18.995  0.00  0.00    -0.276 OA
ATOM     15  N   UNL     1     -28.036 -12.924  21.113  0.00  0.00    -0.286 N 
ATOM     16  H   UNL     1     -27.971 -13.154  22.131  0.00  0.00    +0.155 HD
ENDBRANCH   6  15
ENDBRANCH   3   9
ENDBRANCH   1   3
BRANCH   1  17
ATOM     17  C   UNL     1     -33.473 -11.051  16.983  0.00  0.00    +0.118 C 
BRANCH  17  18
ATOM     18  C   UNL     1     -32.333 -12.065  16.843  0.00  0.00    -0.010 A 
ATOM     19  C   UNL     1     -32.545 -13.432  17.126  0.00  0.00    +0.006 A 
ATOM     20  C   UNL     1     -31.510 -14.360  16.997  0.00  0.00    +0.000 A 
ATOM     21  C   UNL     1     -30.250 -13.948  16.568  0.00  0.00    +0.001 A 
ATOM     22  C   UNL     1     -30.026 -12.609  16.249  0.00  0.00    +0.020 A 
ATOM     23  C   UNL     1     -31.056 -11.667  16.368  0.00  0.00    +0.046 A 
ATOM     24 CL   UNL     1     -30.696 -10.013  15.879  0.00  0.00    -0.083 Cl
ENDBRANCH  17  18
BRANCH  17  25
ATOM     25  C   UNL     1     -34.631 -11.358  16.011  0.00  0.00    +0.145 C 
BRANCH  25  26
ATOM     26  C   UNL     1     -34.392 -10.861  14.614  0.00  0.00    +0.307 C 
ATOM     27  O   UNL     1     -34.572 -11.626  13.629  0.00  0.00    -0.251 OA
BRANCH  26  28
ATOM     28  O   UNL     1     -33.950  -9.557  14.408  0.00  0.00    -0.481 OA
ATOM     29  H   UNL     1     -33.586  -9.268  13.508  0.00  0.00    +0.295 HD
ENDBRANCH  26  28
ENDBRANCH  25  26
ENDBRANCH  17  25
ENDBRANCH   1  17
TORSDOF 8
ENDMDL
MODEL 8
REMARK VINA RESULT:    -4.671      3.240      6.054
REMARK INTER + INTRA:          -8.075
REMARK INTER:                  -6.015
REMARK INTRA:                  -2.060
REMARK UNBOUND:                -1.356
REMARK  Name = 
REMARK  9 active torsions:
REMARK  status: ('A' for Active; 'I' for Inactive)
REMARK    1  A    between atoms: C_1  and  C_2
REMARK    2  A    between atoms: N_4  and  C_5
REMARK    3  A    between atoms: C_8  and  S_11
REMARK    4  A    between atoms: S_11  and  N_14
REMARK    5  A    between atoms: N_14  and  C_15
REMARK    6  A    between atoms: C_15  and  C_16
REMARK    7  A    between atoms: C_15  and  C_20
REMARK    8  A    between atoms: C_16  and  C_17
REMARK    9  A    between atoms: C_17  and  O_19
REMARK                            x       y       z     vdW  Elec       q    Type
REMARK                         _______ _______ _______ _____ _____    ______ ____
ROOT
ATOM      1  N   UNL     1     -32.446  -9.145  18.723  0.00  0.00    -0.182 NA
ATOM      2  H   UNL     1     -33.364  -8.716  18.479  0.00  0.00    +0.149 HD
ENDROOT
BRANCH   1   3
ATOM      3  S   UNL     1     -32.632  -9.981  20.241  0.00  0.00    +0.059 S 
ATOM      4  O   UNL     1     -33.926 -10.747  20.243  0.00  0.00    -0.153 OA
ATOM      5  O   UNL     1     -32.683  -8.968  21.350  0.00  0.00    -0.153 OA
BRANCH   3   9
ATOM      6  C   UNL     1     -29.151 -12.842  21.043  0.00  0.00    +0.033 A 
ATOM      7  C   UNL     1     -29.061 -11.492  21.429  0.00  0.00    +0.025 A 
ATOM      8  C   UNL     1     -30.117 -10.612  21.173  0.00  0.00    +0.030 A 
ATOM      9  C   UNL     1     -31.281 -11.072  20.542  0.00  0.00    +0.105 A 
ATOM     10  C   UNL     1     -31.386 -12.420  20.183  0.00  0.00    +0.030 A 
ATOM     11  C   UNL     1     -30.331 -13.301  20.437  0.00  0.00    +0.025 A 
BRANCH   6  15
ATOM     12  C   UNL     1     -25.799 -14.815  20.937  0.00  0.00    +0.109 C 
ATOM     13  C   UNL     1     -26.899 -13.899  20.504  0.00  0.00    +0.214 C 
ATOM     14  O   UNL     1     -26.807 -13.313  19.392  0.00  0.00    -0.276 OA
ATOM     15  N   UNL     1     -28.086 -13.775  21.304  0.00  0.00    -0.286 N 
ATOM     16  H   UNL     1     -28.230 -14.478  22.066  0.00  0.00    +0.155 HD
ENDBRANCH   6  15
ENDBRANCH   3   9
ENDBRANCH   1   3
BRANCH   1  17
ATOM     17  C   UNL     1     -31.956 -10.030  17.648  0.00  0.00    +0.118 C 
BRANCH  17  18
ATOM     18  C   UNL     1     -32.956 -10.226  16.504  0.00  0.00    -0.010 A 
ATOM     19  C   UNL     1     -33.477  -9.114  15.804  0.00  0.00    +0.006 A 
ATOM     20  C   UNL     1     -34.387  -9.287  14.760  0.00  0.00    +0.000 A 
ATOM     21  C   UNL     1     -34.781 -10.568  14.380  0.00  0.00    +0.001 A 
ATOM     22  C   UNL     1     -34.253 -11.682  15.032  0.00  0.00    +0.020 A 
ATOM     23  C   UNL     1     -33.336 -11.525  16.079  0.00  0.00    +0.046 A 
ATOM     24 CL   UNL     1     -32.675 -12.992  16.798  0.00  0.00    -0.083 Cl
ENDBRANCH  17  18
BRANCH  17  25
ATOM     25  C   UNL     1     -30.582  -9.555  17.130  0.00  0.00    +0.145 C 
BRANCH  25  26
ATOM     26  C   UNL     1     -29.457 -10.493  17.460  0.00  0.00    +0.307 C 
ATOM     27  O   UNL     1     -28.396 -10.052  17.979  0.00  0.00    -0.251 OA
BRANCH  26  28
ATOM     28  O   UNL     1     -29.578 -11.850  17.175  0.00  0.00    -0.481 OA
ATOM     29  H   UNL     1     -29.961 -12.163  16.291  0.00  0.00    +0.295 HD
ENDBRANCH  26  28
ENDBRANCH  25  26
ENDBRANCH  17  25
ENDBRANCH   1  17
TORSDOF 8
ENDMDL
MODEL 9
REMARK VINA RESULT:    -4.544      2.531      3.401
REMARK INTER + INTRA:          -7.893
REMARK INTER:                  -6.498
REMARK INTRA:                  -1.395
REMARK UNBOUND:                -1.356
REMARK  Name = 
REMARK  9 active torsions:
REMARK  status: ('A' for Active; 'I' for Inactive)
REMARK    1  A    between atoms: C_1  and  C_2
REMARK    2  A    between atoms: N_4  and  C_5
REMARK    3  A    between atoms: C_8  and  S_11
REMARK    4  A    between atoms: S_11  and  N_14
REMARK    5  A    between atoms: N_14  and  C_15
REMARK    6  A    between atoms: C_15  and  C_16
REMARK    7  A    between atoms: C_15  and  C_20
REMARK    8  A    between atoms: C_16  and  C_17
REMARK    9  A    between atoms: C_17  and  O_19
REMARK                            x       y       z     vdW  Elec       q    Type
REMARK                         _______ _______ _______ _____ _____    ______ ____
ROOT
ATOM      1  N   UNL     1     -30.803 -12.138  16.391  0.00  0.00    -0.182 NA
ATOM      2  H   UNL     1     -29.974 -11.765  15.882  0.00  0.00    +0.149 HD
ENDROOT
BRANCH   1   3
ATOM      3  S   UNL     1     -32.113 -11.006  16.185  0.00  0.00    +0.059 S 
ATOM      4  O   UNL     1     -33.422 -11.744  16.165  0.00  0.00    -0.153 OA
ATOM      5  O   UNL     1     -31.946 -10.306  14.867  0.00  0.00    -0.153 OA
BRANCH   3   9
ATOM      6  C   UNL     1     -32.125  -7.891  19.539  0.00  0.00    +0.033 A 
ATOM      7  C   UNL     1     -33.200  -7.961  18.633  0.00  0.00    +0.025 A 
ATOM      8  C   UNL     1     -33.193  -8.901  17.599  0.00  0.00    +0.030 A 
ATOM      9  C   UNL     1     -32.120  -9.794  17.466  0.00  0.00    +0.105 A 
ATOM     10  C   UNL     1     -31.063  -9.747  18.381  0.00  0.00    +0.030 A 
ATOM     11  C   UNL     1     -31.068  -8.806  19.415  0.00  0.00    +0.025 A 
BRANCH   6  15
ATOM     12  C   UNL     1     -31.092  -5.116  22.062  0.00  0.00    +0.109 C 
ATOM     13  C   UNL     1     -30.964  -6.162  21.002  0.00  0.00    +0.214 C 
ATOM     14  O   UNL     1     -29.826  -6.409  20.519  0.00  0.00    -0.276 OA
ATOM     15  N   UNL     1     -32.109  -6.942  20.621  0.00  0.00    -0.286 N 
ATOM     16  H   UNL     1     -32.955  -6.888  21.235  0.00  0.00    +0.155 HD
ENDBRANCH   6  15
ENDBRANCH   3   9
ENDBRANCH   1   3
BRANCH   1  17
ATOM     17  C   UNL     1     -31.156 -13.497  15.936  0.00  0.00    +0.118 C 
BRANCH  17  18
ATOM     18  C   UNL     1     -30.323 -13.987  14.747  0.00  0.00    -0.010 A 
ATOM     19  C   UNL     1     -29.073 -14.613  14.953  0.00  0.00    +0.006 A 
ATOM     20  C   UNL     1     -28.310 -15.062  13.873  0.00  0.00    +0.000 A 
ATOM     21  C   UNL     1     -28.785 -14.915  12.571  0.00  0.00    +0.001 A 
ATOM     22  C   UNL     1     -30.031 -14.333  12.346  0.00  0.00    +0.020 A 
ATOM     23  C   UNL     1     -30.810 -13.881  13.419  0.00  0.00    +0.046 A 
ATOM     24 CL   UNL     1     -32.399 -13.219  13.039  0.00  0.00    -0.083 Cl
ENDBRANCH  17  18
BRANCH  17  25
ATOM     25  C   UNL     1     -31.115 -14.497  17.111  0.00  0.00    +0.145 C 
BRANCH  25  26
ATOM     26  C   UNL     1     -30.628 -13.895  18.397  0.00  0.00    +0.307 C 
ATOM     27  O   UNL     1     -31.320 -13.026  18.993  0.00  0.00    -0.251 OA
BRANCH  26  28
ATOM     28  O   UNL     1     -29.398 -14.283  18.922  0.00  0.00    -0.481 OA
ATOM     29  H   UNL     1     -28.567 -13.725  18.766  0.00  0.00    +0.295 HD
ENDBRANCH  26  28
ENDBRANCH  25  26
ENDBRANCH  17  25
ENDBRANCH   1  17
TORSDOF 8
ENDMDL
