MODEL 1
REMARK VINA RESULT:    -5.128      0.000      0.000
REMARK INTER + INTRA:          -9.914
REMARK INTER:                  -7.526
REMARK INTRA:                  -2.388
REMARK UNBOUND:                -2.388
REMARK  Name = 
REMARK  9 active torsions:
REMARK  status: ('A' for Active; 'I' for Inactive)
REMARK    1  A    between atoms: C_1  and  O_2
REMARK    2  A    between atoms: O_2  and  C_3
REMARK    3  A    between atoms: C_3  and  C_5
REMARK    4  A    between atoms: C_5  and  C_6
REMARK    5  A    between atoms: C_6  and  N_7
REMARK    6  A    between atoms: C_6  and  C_20
REMARK    7  A    between atoms: C_8  and  C_10
REMARK    8  A    between atoms: C_15  and  O_16
REMARK    9  A    between atoms: O_16  and  C_17
REMARK                            x       y       z     vdW  Elec       q    Type
REMARK                         _______ _______ _______ _____ _____    ______ ____
ROOT
ATOM      1  C   UNL     1     -29.567 -12.407  19.223  0.00  0.00    +0.117 C 
ENDROOT
BRANCH   1   2
ATOM      2  C   UNL     1     -28.388 -12.983  19.993  0.00  0.00    +0.009 A 
ATOM      3  C   UNL     1     -28.604 -13.777  21.136  0.00  0.00    +0.011 A 
ATOM      4  C   UNL     1     -27.526 -14.333  21.831  0.00  0.00    +0.039 A 
ATOM      5  C   UNL     1     -26.221 -14.110  21.389  0.00  0.00    +0.126 A 
ATOM      6  F   UNL     1     -25.176 -14.653  22.062  0.00  0.00    -0.205 F 
ATOM      7  C   UNL     1     -25.990 -13.331  20.252  0.00  0.00    +0.077 A 
ATOM      8  C   UNL     1     -27.064 -12.771  19.554  0.00  0.00    +0.131 A 
ATOM      9  F   UNL     1     -26.808 -12.030  18.446  0.00  0.00    -0.205 F 
ENDBRANCH   1   2
BRANCH   1  10
ATOM     10  N   UNL     1     -29.450 -12.723  17.794  0.00  0.00    -0.304 N 
ATOM     11  C   UNL     1     -30.152 -13.819  17.188  0.00  0.00    +0.248 C 
ATOM     12  O   UNL     1     -30.635 -14.733  17.912  0.00  0.00    -0.270 OA
ATOM     13  H   UNL     1     -28.799 -12.168  17.192  0.00  0.00    +0.150 HD
BRANCH  11  14
ATOM     14  C   UNL     1     -30.286 -13.910  15.716  0.00  0.00    +0.078 A 
ATOM     15  C   UNL     1     -29.448 -14.785  15.003  0.00  0.00    +0.017 A 
ATOM     16  C   UNL     1     -29.540 -14.883  13.615  0.00  0.00    +0.001 A 
ATOM     17  C   UNL     1     -30.474 -14.115  12.921  0.00  0.00    +0.004 A 
ATOM     18  C   UNL     1     -31.328 -13.255  13.614  0.00  0.00    +0.046 A 
ATOM     19  C   UNL     1     -31.252 -13.150  15.018  0.00  0.00    +0.139 A 
BRANCH  19  20
ATOM     20  O   UNL     1     -32.133 -12.330  15.744  0.00  0.00    -0.433 OA
BRANCH  20  21
ATOM     21  C   UNL     1     -32.719 -11.125  15.262  0.00  0.00    +0.541 C 
ATOM     22  F   UNL     1     -33.530 -10.594  16.247  0.00  0.00    -0.166 F 
ATOM     23  F   UNL     1     -31.728 -10.210  14.955  0.00  0.00    -0.166 F 
ENDBRANCH  20  21
ENDBRANCH  19  20
ENDBRANCH  11  14
ENDBRANCH   1  10
BRANCH   1  24
ATOM     24  C   UNL     1     -29.670 -10.881  19.423  0.00  0.00    +0.147 C 
BRANCH  24  25
ATOM     25  C   UNL     1     -29.862 -10.170  18.118  0.00  0.00    +0.309 C 
ATOM     26  O   UNL     1     -28.918 -10.127  17.284  0.00  0.00    -0.251 OA
BRANCH  25  28
ATOM     27  C   UNL     1     -31.841  -8.832  18.755  0.00  0.00    +0.280 C 
ATOM     28  O   UNL     1     -31.106  -9.609  17.819  0.00  0.00    -0.468 OA
ENDBRANCH  25  28
ENDBRANCH  24  25
ENDBRANCH   1  24
TORSDOF 8
ENDMDL
MODEL 2
REMARK VINA RESULT:    -4.777      2.224      6.336
REMARK INTER + INTRA:          -9.400
REMARK INTER:                  -6.997
REMARK INTRA:                  -2.403
REMARK UNBOUND:                -2.388
REMARK  Name = 
REMARK  9 active torsions:
REMARK  status: ('A' for Active; 'I' for Inactive)
REMARK    1  A    between atoms: C_1  and  O_2
REMARK    2  A    between atoms: O_2  and  C_3
REMARK    3  A    between atoms: C_3  and  C_5
REMARK    4  A    between atoms: C_5  and  C_6
REMARK    5  A    between atoms: C_6  and  N_7
REMARK    6  A    between atoms: C_6  and  C_20
REMARK    7  A    between atoms: C_8  and  C_10
REMARK    8  A    between atoms: C_15  and  O_16
REMARK    9  A    between atoms: O_16  and  C_17
REMARK                            x       y       z     vdW  Elec       q    Type
REMARK                         _______ _______ _______ _____ _____    ______ ____
ROOT
ATOM      1  C   UNL     1     -30.034 -11.295  17.660  0.00  0.00    +0.117 C 
ENDROOT
BRANCH   1   2
ATOM      2  C   UNL     1     -30.588 -11.931  16.393  0.00  0.00    +0.009 A 
ATOM      3  C   UNL     1     -30.453 -13.317  16.175  0.00  0.00    +0.011 A 
ATOM      4  C   UNL     1     -30.986 -13.911  15.029  0.00  0.00    +0.039 A 
ATOM      5  C   UNL     1     -31.666 -13.134  14.089  0.00  0.00    +0.126 A 
ATOM      6  F   UNL     1     -32.185 -13.713  12.978  0.00  0.00    -0.205 F 
ATOM      7  C   UNL     1     -31.816 -11.760  14.295  0.00  0.00    +0.077 A 
ATOM      8  C   UNL     1     -31.284 -11.158  15.440  0.00  0.00    +0.131 A 
ATOM      9  F   UNL     1     -31.457  -9.824  15.618  0.00  0.00    -0.205 F 
ENDBRANCH   1   2
BRANCH   1  10
ATOM     10  N   UNL     1     -29.277 -12.282  18.440  0.00  0.00    -0.304 N 
ATOM     11  C   UNL     1     -27.949 -12.027  18.922  0.00  0.00    +0.248 C 
ATOM     12  O   UNL     1     -27.271 -11.084  18.426  0.00  0.00    -0.270 OA
ATOM     13  H   UNL     1     -29.687 -13.227  18.618  0.00  0.00    +0.150 HD
BRANCH  11  14
ATOM     14  C   UNL     1     -27.348 -12.881  19.972  0.00  0.00    +0.078 A 
ATOM     15  C   UNL     1     -26.002 -13.270  19.853  0.00  0.00    +0.017 A 
ATOM     16  C   UNL     1     -25.412 -14.086  20.818  0.00  0.00    +0.001 A 
ATOM     17  C   UNL     1     -26.154 -14.517  21.918  0.00  0.00    +0.004 A 
ATOM     18  C   UNL     1     -27.486 -14.124  22.062  0.00  0.00    +0.046 A 
ATOM     19  C   UNL     1     -28.095 -13.294  21.099  0.00  0.00    +0.139 A 
BRANCH  19  20
ATOM     20  O   UNL     1     -29.418 -12.843  21.246  0.00  0.00    -0.433 OA
BRANCH  20  21
ATOM     21  C   UNL     1     -29.826 -11.749  22.062  0.00  0.00    +0.541 C 
ATOM     22  F   UNL     1     -29.040 -10.651  21.769  0.00  0.00    -0.166 F 
ATOM     23  F   UNL     1     -31.148 -11.436  21.804  0.00  0.00    -0.166 F 
ENDBRANCH  20  21
ENDBRANCH  19  20
ENDBRANCH  11  14
ENDBRANCH   1  10
BRANCH   1  24
ATOM     24  C   UNL     1     -31.165 -10.694  18.520  0.00  0.00    +0.147 C 
BRANCH  24  25
ATOM     25  C   UNL     1     -30.844  -9.293  18.943  0.00  0.00    +0.309 C 
ATOM     26  O   UNL     1     -29.704  -9.026  19.411  0.00  0.00    -0.251 OA
BRANCH  25  28
ATOM     27  C   UNL     1     -33.127  -8.558  18.343  0.00  0.00    +0.280 C 
ATOM     28  O   UNL     1     -31.796  -8.287  18.764  0.00  0.00    -0.468 OA
ENDBRANCH  25  28
ENDBRANCH  24  25
ENDBRANCH   1  24
TORSDOF 8
ENDMDL
MODEL 3
REMARK VINA RESULT:    -4.715      2.202      3.449
REMARK INTER + INTRA:          -9.309
REMARK INTER:                  -7.118
REMARK INTRA:                  -2.190
REMARK UNBOUND:                -2.388
REMARK  Name = 
REMARK  9 active torsions:
REMARK  status: ('A' for Active; 'I' for Inactive)
REMARK    1  A    between atoms: C_1  and  O_2
REMARK    2  A    between atoms: O_2  and  C_3
REMARK    3  A    between atoms: C_3  and  C_5
REMARK    4  A    between atoms: C_5  and  C_6
REMARK    5  A    between atoms: C_6  and  N_7
REMARK    6  A    between atoms: C_6  and  C_20
REMARK    7  A    between atoms: C_8  and  C_10
REMARK    8  A    between atoms: C_15  and  O_16
REMARK    9  A    between atoms: O_16  and  C_17
REMARK                            x       y       z     vdW  Elec       q    Type
REMARK                         _______ _______ _______ _____ _____    ______ ____
ROOT
ATOM      1  C   UNL     1     -30.940 -11.309  17.983  0.00  0.00    +0.117 C 
ENDROOT
BRANCH   1   2
ATOM      2  C   UNL     1     -29.837 -11.951  18.812  0.00  0.00    +0.009 A 
ATOM      3  C   UNL     1     -28.491 -11.849  18.405  0.00  0.00    +0.011 A 
ATOM      4  C   UNL     1     -27.471 -12.411  19.177  0.00  0.00    +0.039 A 
ATOM      5  C   UNL     1     -27.779 -13.075  20.366  0.00  0.00    +0.126 A 
ATOM      6  F   UNL     1     -26.786 -13.617  21.115  0.00  0.00    -0.205 F 
ATOM      7  C   UNL     1     -29.107 -13.178  20.786  0.00  0.00    +0.077 A 
ATOM      8  C   UNL     1     -30.133 -12.619  20.019  0.00  0.00    +0.131 A 
ATOM      9  F   UNL     1     -31.412 -12.725  20.460  0.00  0.00    -0.205 F 
ENDBRANCH   1   2
BRANCH   1  10
ATOM     10  N   UNL     1     -31.176 -12.081  16.757  0.00  0.00    -0.304 N 
ATOM     11  C   UNL     1     -32.343 -11.893  15.942  0.00  0.00    +0.248 C 
ATOM     12  O   UNL     1     -33.349 -11.296  16.414  0.00  0.00    -0.270 OA
ATOM     13  H   UNL     1     -30.502 -12.830  16.479  0.00  0.00    +0.150 HD
BRANCH  11  14
ATOM     14  C   UNL     1     -32.394 -12.424  14.561  0.00  0.00    +0.078 A 
ATOM     15  C   UNL     1     -33.535 -12.184  13.775  0.00  0.00    +0.017 A 
ATOM     16  C   UNL     1     -33.619 -12.684  12.475  0.00  0.00    +0.001 A 
ATOM     17  C   UNL     1     -32.564 -13.422  11.940  0.00  0.00    +0.004 A 
ATOM     18  C   UNL     1     -31.415 -13.653  12.699  0.00  0.00    +0.046 A 
ATOM     19  C   UNL     1     -31.311 -13.149  14.012  0.00  0.00    +0.139 A 
BRANCH  19  20
ATOM     20  O   UNL     1     -30.146 -13.324  14.778  0.00  0.00    -0.433 OA
BRANCH  20  21
ATOM     21  C   UNL     1     -29.576 -14.581  15.130  0.00  0.00    +0.541 C 
ATOM     22  F   UNL     1     -28.211 -14.429  15.281  0.00  0.00    -0.166 F 
ATOM     23  F   UNL     1     -30.114 -15.024  16.324  0.00  0.00    -0.166 F 
ENDBRANCH  20  21
ENDBRANCH  19  20
ENDBRANCH  11  14
ENDBRANCH   1  10
BRANCH   1  24
ATOM     24  C   UNL     1     -30.592  -9.848  17.632  0.00  0.00    +0.147 C 
BRANCH  24  25
ATOM     25  C   UNL     1     -31.081  -8.901  18.685  0.00  0.00    +0.309 C 
ATOM     26  O   UNL     1     -32.259  -8.456  18.629  0.00  0.00    -0.251 OA
BRANCH  25  28
ATOM     27  C   UNL     1     -30.721  -8.350  21.069  0.00  0.00    +0.280 C 
ATOM     28  O   UNL     1     -30.239  -8.563  19.748  0.00  0.00    -0.468 OA
ENDBRANCH  25  28
ENDBRANCH  24  25
ENDBRANCH   1  24
TORSDOF 8
ENDMDL
MODEL 4
REMARK VINA RESULT:    -4.650      2.038      4.206
REMARK INTER + INTRA:          -9.213
REMARK INTER:                  -7.259
REMARK INTRA:                  -1.954
REMARK UNBOUND:                -2.388
REMARK  Name = 
REMARK  9 active torsions:
REMARK  status: ('A' for Active; 'I' for Inactive)
REMARK    1  A    between atoms: C_1  and  O_2
REMARK    2  A    between atoms: O_2  and  C_3
REMARK    3  A    between atoms: C_3  and  C_5
REMARK    4  A    between atoms: C_5  and  C_6
REMARK    5  A    between atoms: C_6  and  N_7
REMARK    6  A    between atoms: C_6  and  C_20
REMARK    7  A    between atoms: C_8  and  C_10
REMARK    8  A    between atoms: C_15  and  O_16
REMARK    9  A    between atoms: O_16  and  C_17
REMARK                            x       y       z     vdW  Elec       q    Type
REMARK                         _______ _______ _______ _____ _____    ______ ____
ROOT
ATOM      1  C   UNL     1     -28.645 -12.358  19.641  0.00  0.00    +0.117 C 
ENDROOT
BRANCH   1   2
ATOM      2  C   UNL     1     -29.646 -11.235  19.872  0.00  0.00    +0.009 A 
ATOM      3  C   UNL     1     -30.487 -11.254  21.003  0.00  0.00    +0.011 A 
ATOM      4  C   UNL     1     -31.387 -10.211  21.237  0.00  0.00    +0.039 A 
ATOM      5  C   UNL     1     -31.454  -9.134  20.351  0.00  0.00    +0.126 A 
ATOM      6  F   UNL     1     -32.326  -8.120  20.582  0.00  0.00    -0.205 F 
ATOM      7  C   UNL     1     -30.620  -9.096  19.231  0.00  0.00    +0.077 A 
ATOM      8  C   UNL     1     -29.718 -10.137  18.990  0.00  0.00    +0.131 A 
ATOM      9  F   UNL     1     -28.913 -10.066  17.900  0.00  0.00    -0.205 F 
ENDBRANCH   1   2
BRANCH   1  10
ATOM     10  N   UNL     1     -28.770 -12.883  18.276  0.00  0.00    -0.304 N 
ATOM     11  C   UNL     1     -29.988 -13.464  17.784  0.00  0.00    +0.248 C 
ATOM     12  O   UNL     1     -30.882 -13.831  18.595  0.00  0.00    -0.270 OA
ATOM     13  H   UNL     1     -27.938 -12.885  17.643  0.00  0.00    +0.150 HD
BRANCH  11  14
ATOM     14  C   UNL     1     -30.194 -13.670  16.332  0.00  0.00    +0.078 A 
ATOM     15  C   UNL     1     -29.548 -14.743  15.693  0.00  0.00    +0.017 A 
ATOM     16  C   UNL     1     -29.711 -14.955  14.324  0.00  0.00    +0.001 A 
ATOM     17  C   UNL     1     -30.526 -14.106  13.577  0.00  0.00    +0.004 A 
ATOM     18  C   UNL     1     -31.192 -13.048  14.199  0.00  0.00    +0.046 A 
ATOM     19  C   UNL     1     -31.043 -12.823  15.583  0.00  0.00    +0.139 A 
BRANCH  19  20
ATOM     20  O   UNL     1     -31.741 -11.797  16.242  0.00  0.00    -0.433 OA
BRANCH  20  21
ATOM     21  C   UNL     1     -31.921 -10.475  15.743  0.00  0.00    +0.541 C 
ATOM     22  F   UNL     1     -32.669  -9.750  16.651  0.00  0.00    -0.166 F 
ATOM     23  F   UNL     1     -30.692  -9.861  15.582  0.00  0.00    -0.166 F 
ENDBRANCH  20  21
ENDBRANCH  19  20
ENDBRANCH  11  14
ENDBRANCH   1  10
BRANCH   1  24
ATOM     24  C   UNL     1     -28.839 -13.494  20.667  0.00  0.00    +0.147 C 
BRANCH  24  25
ATOM     25  C   UNL     1     -27.558 -14.231  20.915  0.00  0.00    +0.309 C 
ATOM     26  O   UNL     1     -27.481 -15.048  21.872  0.00  0.00    -0.251 OA
BRANCH  25  28
ATOM     27  C   UNL     1     -25.132 -13.997  20.501  0.00  0.00    +0.280 C 
ATOM     28  O   UNL     1     -26.479 -14.043  20.048  0.00  0.00    -0.468 OA
ENDBRANCH  25  28
ENDBRANCH  24  25
ENDBRANCH   1  24
TORSDOF 8
ENDMDL
MODEL 5
REMARK VINA RESULT:    -4.578      2.670      4.696
REMARK INTER + INTRA:          -9.108
REMARK INTER:                  -6.805
REMARK INTRA:                  -2.303
REMARK UNBOUND:                -2.388
REMARK  Name = 
REMARK  9 active torsions:
REMARK  status: ('A' for Active; 'I' for Inactive)
REMARK    1  A    between atoms: C_1  and  O_2
REMARK    2  A    between atoms: O_2  and  C_3
REMARK    3  A    between atoms: C_3  and  C_5
REMARK    4  A    between atoms: C_5  and  C_6
REMARK    5  A    between atoms: C_6  and  N_7
REMARK    6  A    between atoms: C_6  and  C_20
REMARK    7  A    between atoms: C_8  and  C_10
REMARK    8  A    between atoms: C_15  and  O_16
REMARK    9  A    between atoms: O_16  and  C_17
REMARK                            x       y       z     vdW  Elec       q    Type
REMARK                         _______ _______ _______ _____ _____    ______ ____
ROOT
ATOM      1  C   UNL     1     -30.171 -11.528  17.506  0.00  0.00    +0.117 C 
ENDROOT
BRANCH   1   2
ATOM      2  C   UNL     1     -31.035 -11.165  18.705  0.00  0.00    +0.009 A 
ATOM      3  C   UNL     1     -31.856 -12.138  19.310  0.00  0.00    +0.011 A 
ATOM      4  C   UNL     1     -32.630 -11.819  20.429  0.00  0.00    +0.039 A 
ATOM      5  C   UNL     1     -32.589 -10.530  20.963  0.00  0.00    +0.126 A 
ATOM      6  F   UNL     1     -33.338 -10.224  22.051  0.00  0.00    -0.205 F 
ATOM      7  C   UNL     1     -31.774  -9.557  20.380  0.00  0.00    +0.077 A 
ATOM      8  C   UNL     1     -30.998  -9.868  19.259  0.00  0.00    +0.131 A 
ATOM      9  F   UNL     1     -30.207  -8.905  18.722  0.00  0.00    -0.205 F 
ENDBRANCH   1   2
BRANCH   1  10
ATOM     10  N   UNL     1     -30.981 -12.177  16.468  0.00  0.00    -0.304 N 
ATOM     11  C   UNL     1     -31.588 -11.443  15.394  0.00  0.00    +0.248 C 
ATOM     12  O   UNL     1     -31.715 -10.190  15.483  0.00  0.00    -0.270 OA
ATOM     13  H   UNL     1     -31.170 -13.204  16.525  0.00  0.00    +0.150 HD
BRANCH  11  14
ATOM     14  C   UNL     1     -32.103 -12.144  14.196  0.00  0.00    +0.078 A 
ATOM     15  C   UNL     1     -33.374 -11.807  13.697  0.00  0.00    +0.017 A 
ATOM     16  C   UNL     1     -33.893 -12.460  12.578  0.00  0.00    +0.001 A 
ATOM     17  C   UNL     1     -33.147 -13.449  11.938  0.00  0.00    +0.004 A 
ATOM     18  C   UNL     1     -31.875 -13.781  12.407  0.00  0.00    +0.046 A 
ATOM     19  C   UNL     1     -31.333 -13.127  13.532  0.00  0.00    +0.139 A 
BRANCH  19  20
ATOM     20  O   UNL     1     -30.036 -13.407  13.994  0.00  0.00    -0.433 OA
BRANCH  20  21
ATOM     21  C   UNL     1     -29.621 -14.636  14.582  0.00  0.00    +0.541 C 
ATOM     22  F   UNL     1     -28.419 -14.438  15.235  0.00  0.00    -0.166 F 
ATOM     23  F   UNL     1     -30.565 -15.062  15.497  0.00  0.00    -0.166 F 
ENDBRANCH  20  21
ENDBRANCH  19  20
ENDBRANCH  11  14
ENDBRANCH   1  10
BRANCH   1  24
ATOM     24  C   UNL     1     -29.003 -12.446  17.921  0.00  0.00    +0.147 C 
BRANCH  24  25
ATOM     25  C   UNL     1     -27.839 -11.654  18.431  0.00  0.00    +0.309 C 
ATOM     26  O   UNL     1     -27.555 -10.546  17.902  0.00  0.00    -0.251 OA
BRANCH  25  28
ATOM     27  C   UNL     1     -27.438 -13.342  20.193  0.00  0.00    +0.280 C 
ATOM     28  O   UNL     1     -27.112 -12.130  19.526  0.00  0.00    -0.468 OA
ENDBRANCH  25  28
ENDBRANCH  24  25
ENDBRANCH   1  24
TORSDOF 8
ENDMDL
MODEL 6
REMARK VINA RESULT:    -4.356      2.866      4.493
REMARK INTER + INTRA:          -8.781
REMARK INTER:                  -6.479
REMARK INTRA:                  -2.302
REMARK UNBOUND:                -2.388
REMARK  Name = 
REMARK  9 active torsions:
REMARK  status: ('A' for Active; 'I' for Inactive)
REMARK    1  A    between atoms: C_1  and  O_2
REMARK    2  A    between atoms: O_2  and  C_3
REMARK    3  A    between atoms: C_3  and  C_5
REMARK    4  A    between atoms: C_5  and  C_6
REMARK    5  A    between atoms: C_6  and  N_7
REMARK    6  A    between atoms: C_6  and  C_20
REMARK    7  A    between atoms: C_8  and  C_10
REMARK    8  A    between atoms: C_15  and  O_16
REMARK    9  A    between atoms: O_16  and  C_17
REMARK                            x       y       z     vdW  Elec       q    Type
REMARK                         _______ _______ _______ _____ _____    ______ ____
ROOT
ATOM      1  C   UNL     1     -30.049 -11.198  17.363  0.00  0.00    +0.117 C 
ENDROOT
BRANCH   1   2
ATOM      2  C   UNL     1     -31.177 -11.007  18.366  0.00  0.00    +0.009 A 
ATOM      3  C   UNL     1     -31.497 -12.031  19.280  0.00  0.00    +0.011 A 
ATOM      4  C   UNL     1     -32.512 -11.851  20.223  0.00  0.00    +0.039 A 
ATOM      5  C   UNL     1     -33.216 -10.646  20.271  0.00  0.00    +0.126 A 
ATOM      6  F   UNL     1     -34.199 -10.472  21.189  0.00  0.00    -0.205 F 
ATOM      7  C   UNL     1     -32.905  -9.619  19.377  0.00  0.00    +0.077 A 
ATOM      8  C   UNL     1     -31.891  -9.792  18.430  0.00  0.00    +0.131 A 
ATOM      9  F   UNL     1     -31.604  -8.771  17.584  0.00  0.00    -0.205 F 
ENDBRANCH   1   2
BRANCH   1  10
ATOM     10  N   UNL     1     -30.588 -11.336  16.004  0.00  0.00    -0.304 N 
ATOM     11  C   UNL     1     -31.173 -12.558  15.529  0.00  0.00    +0.248 C 
ATOM     12  O   UNL     1     -30.956 -13.639  16.144  0.00  0.00    -0.270 OA
ATOM     13  H   UNL     1     -30.508 -10.539  15.332  0.00  0.00    +0.150 HD
BRANCH  11  14
ATOM     14  C   UNL     1     -32.001 -12.573  14.302  0.00  0.00    +0.078 A 
ATOM     15  C   UNL     1     -31.644 -13.428  13.244  0.00  0.00    +0.017 A 
ATOM     16  C   UNL     1     -32.396 -13.455  12.069  0.00  0.00    +0.001 A 
ATOM     17  C   UNL     1     -33.516 -12.634  11.938  0.00  0.00    +0.004 A 
ATOM     18  C   UNL     1     -33.896 -11.794  12.985  0.00  0.00    +0.046 A 
ATOM     19  C   UNL     1     -33.151 -11.760  14.182  0.00  0.00    +0.139 A 
BRANCH  19  20
ATOM     20  O   UNL     1     -33.541 -10.961  15.270  0.00  0.00    -0.433 OA
BRANCH  20  21
ATOM     21  C   UNL     1     -34.623 -11.245  16.151  0.00  0.00    +0.541 C 
ATOM     22  F   UNL     1     -34.197 -12.146  17.110  0.00  0.00    -0.166 F 
ATOM     23  F   UNL     1     -35.037 -10.084  16.778  0.00  0.00    -0.166 F 
ENDBRANCH  20  21
ENDBRANCH  19  20
ENDBRANCH  11  14
ENDBRANCH   1  10
BRANCH   1  24
ATOM     24  C   UNL     1     -29.190 -12.429  17.720  0.00  0.00    +0.147 C 
BRANCH  24  25
ATOM     25  C   UNL     1     -27.862 -12.025  18.282  0.00  0.00    +0.309 C 
ATOM     26  O   UNL     1     -27.415 -10.867  18.063  0.00  0.00    -0.251 OA
BRANCH  25  28
ATOM     27  C   UNL     1     -27.720 -13.509  20.255  0.00  0.00    +0.280 C 
ATOM     28  O   UNL     1     -27.157 -12.922  19.089  0.00  0.00    -0.468 OA
ENDBRANCH  25  28
ENDBRANCH  24  25
ENDBRANCH   1  24
TORSDOF 8
ENDMDL
MODEL 7
REMARK VINA RESULT:    -4.348      2.097      6.664
REMARK INTER + INTRA:          -8.769
REMARK INTER:                  -6.153
REMARK INTRA:                  -2.616
REMARK UNBOUND:                -2.388
REMARK  Name = 
REMARK  9 active torsions:
REMARK  status: ('A' for Active; 'I' for Inactive)
REMARK    1  A    between atoms: C_1  and  O_2
REMARK    2  A    between atoms: O_2  and  C_3
REMARK    3  A    between atoms: C_3  and  C_5
REMARK    4  A    between atoms: C_5  and  C_6
REMARK    5  A    between atoms: C_6  and  N_7
REMARK    6  A    between atoms: C_6  and  C_20
REMARK    7  A    between atoms: C_8  and  C_10
REMARK    8  A    between atoms: C_15  and  O_16
REMARK    9  A    between atoms: O_16  and  C_17
REMARK                            x       y       z     vdW  Elec       q    Type
REMARK                         _______ _______ _______ _____ _____    ______ ____
ROOT
ATOM      1  C   UNL     1     -31.498 -13.385  17.499  0.00  0.00    +0.117 C 
ENDROOT
BRANCH   1   2
ATOM      2  C   UNL     1     -32.023 -12.028  17.055  0.00  0.00    +0.009 A 
ATOM      3  C   UNL     1     -31.169 -10.907  17.034  0.00  0.00    +0.011 A 
ATOM      4  C   UNL     1     -31.638  -9.664  16.599  0.00  0.00    +0.039 A 
ATOM      5  C   UNL     1     -32.960  -9.526  16.174  0.00  0.00    +0.126 A 
ATOM      6  F   UNL     1     -33.412  -8.319  15.749  0.00  0.00    -0.205 F 
ATOM      7  C   UNL     1     -33.817 -10.629  16.181  0.00  0.00    +0.077 A 
ATOM      8  C   UNL     1     -33.355 -11.875  16.616  0.00  0.00    +0.131 A 
ATOM      9  F   UNL     1     -34.208 -12.931  16.599  0.00  0.00    -0.205 F 
ENDBRANCH   1   2
BRANCH   1  10
ATOM     10  N   UNL     1     -30.192 -13.239  18.156  0.00  0.00    -0.304 N 
ATOM     11  C   UNL     1     -30.034 -13.319  19.580  0.00  0.00    +0.248 C 
ATOM     12  O   UNL     1     -31.041 -13.198  20.332  0.00  0.00    -0.270 OA
ATOM     13  H   UNL     1     -29.345 -13.022  17.582  0.00  0.00    +0.150 HD
BRANCH  11  14
ATOM     14  C   UNL     1     -28.695 -13.507  20.183  0.00  0.00    +0.078 A 
ATOM     15  C   UNL     1     -28.592 -14.084  21.461  0.00  0.00    +0.017 A 
ATOM     16  C   UNL     1     -27.346 -14.261  22.062  0.00  0.00    +0.001 A 
ATOM     17  C   UNL     1     -26.186 -13.873  21.392  0.00  0.00    +0.004 A 
ATOM     18  C   UNL     1     -26.267 -13.318  20.114  0.00  0.00    +0.046 A 
ATOM     19  C   UNL     1     -27.519 -13.138  19.490  0.00  0.00    +0.139 A 
BRANCH  19  20
ATOM     20  O   UNL     1     -27.625 -12.628  18.185  0.00  0.00    -0.433 OA
BRANCH  20  21
ATOM     21  C   UNL     1     -27.474 -11.259  17.824  0.00  0.00    +0.541 C 
ATOM     22  F   UNL     1     -28.262 -10.485  18.655  0.00  0.00    -0.166 F 
ATOM     23  F   UNL     1     -26.154 -10.876  17.971  0.00  0.00    -0.166 F 
ENDBRANCH  20  21
ENDBRANCH  19  20
ENDBRANCH  11  14
ENDBRANCH   1  10
BRANCH   1  24
ATOM     24  C   UNL     1     -31.386 -14.355  16.306  0.00  0.00    +0.147 C 
BRANCH  24  25
ATOM     25  C   UNL     1     -30.109 -14.149  15.551  0.00  0.00    +0.309 C 
ATOM     26  O   UNL     1     -29.040 -14.664  15.976  0.00  0.00    -0.251 OA
BRANCH  25  28
ATOM     27  C   UNL     1     -30.985 -13.771  13.270  0.00  0.00    +0.280 C 
ATOM     28  O   UNL     1     -30.128 -13.431  14.352  0.00  0.00    -0.468 OA
ENDBRANCH  25  28
ENDBRANCH  24  25
ENDBRANCH   1  24
TORSDOF 8
ENDMDL
MODEL 8
REMARK VINA RESULT:    -4.170      2.772      6.787
REMARK INTER + INTRA:          -8.508
REMARK INTER:                  -5.945
REMARK INTRA:                  -2.562
REMARK UNBOUND:                -2.388
REMARK  Name = 
REMARK  9 active torsions:
REMARK  status: ('A' for Active; 'I' for Inactive)
REMARK    1  A    between atoms: C_1  and  O_2
REMARK    2  A    between atoms: O_2  and  C_3
REMARK    3  A    between atoms: C_3  and  C_5
REMARK    4  A    between atoms: C_5  and  C_6
REMARK    5  A    between atoms: C_6  and  N_7
REMARK    6  A    between atoms: C_6  and  C_20
REMARK    7  A    between atoms: C_8  and  C_10
REMARK    8  A    between atoms: C_15  and  O_16
REMARK    9  A    between atoms: O_16  and  C_17
REMARK                            x       y       z     vdW  Elec       q    Type
REMARK                         _______ _______ _______ _____ _____    ______ ____
ROOT
ATOM      1  C   UNL     1     -32.146  -9.991  16.150  0.00  0.00    +0.117 C 
ENDROOT
BRANCH   1   2
ATOM      2  C   UNL     1     -32.731 -10.855  15.041  0.00  0.00    +0.009 A 
ATOM      3  C   UNL     1     -34.025 -10.597  14.546  0.00  0.00    +0.011 A 
ATOM      4  C   UNL     1     -34.556 -11.368  13.508  0.00  0.00    +0.039 A 
ATOM      5  C   UNL     1     -33.801 -12.400  12.948  0.00  0.00    +0.126 A 
ATOM      6  F   UNL     1     -34.317 -13.144  11.938  0.00  0.00    -0.205 F 
ATOM      7  C   UNL     1     -32.513 -12.662  13.421  0.00  0.00    +0.077 A 
ATOM      8  C   UNL     1     -31.976 -11.896  14.460  0.00  0.00    +0.131 A 
ATOM      9  F   UNL     1     -30.718 -12.167  14.891  0.00  0.00    -0.205 F 
ENDBRANCH   1   2
BRANCH   1  10
ATOM     10  N   UNL     1     -31.572 -10.833  17.207  0.00  0.00    -0.304 N 
ATOM     11  C   UNL     1     -30.250 -10.621  17.725  0.00  0.00    +0.248 C 
ATOM     12  O   UNL     1     -29.426  -9.919  17.077  0.00  0.00    -0.270 OA
ATOM     13  H   UNL     1     -32.115 -11.649  17.572  0.00  0.00    +0.150 HD
BRANCH  11  14
ATOM     14  C   UNL     1     -29.828 -11.249  18.998  0.00  0.00    +0.078 A 
ATOM     15  C   UNL     1     -29.777 -10.467  20.165  0.00  0.00    +0.017 A 
ATOM     16  C   UNL     1     -29.369 -11.026  21.377  0.00  0.00    +0.001 A 
ATOM     17  C   UNL     1     -29.016 -12.373  21.441  0.00  0.00    +0.004 A 
ATOM     18  C   UNL     1     -29.080 -13.170  20.296  0.00  0.00    +0.046 A 
ATOM     19  C   UNL     1     -29.496 -12.622  19.066  0.00  0.00    +0.139 A 
BRANCH  19  20
ATOM     20  O   UNL     1     -29.618 -13.413  17.911  0.00  0.00    -0.433 OA
BRANCH  20  21
ATOM     21  C   UNL     1     -30.669 -14.340  17.657  0.00  0.00    +0.541 C 
ATOM     22  F   UNL     1     -31.878 -13.741  17.956  0.00  0.00    -0.166 F 
ATOM     23  F   UNL     1     -30.665 -14.704  16.323  0.00  0.00    -0.166 F 
ENDBRANCH  20  21
ENDBRANCH  19  20
ENDBRANCH  11  14
ENDBRANCH   1  10
BRANCH   1  24
ATOM     24  C   UNL     1     -33.215  -9.050  16.743  0.00  0.00    +0.147 C 
BRANCH  24  25
ATOM     25  C   UNL     1     -33.217  -9.099  18.240  0.00  0.00    +0.309 C 
ATOM     26  O   UNL     1     -32.799  -8.109  18.899  0.00  0.00    -0.251 OA
BRANCH  25  28
ATOM     27  C   UNL     1     -33.547 -10.458  20.279  0.00  0.00    +0.280 C 
ATOM     28  O   UNL     1     -33.733 -10.223  18.889  0.00  0.00    -0.468 OA
ENDBRANCH  25  28
ENDBRANCH  24  25
ENDBRANCH   1  24
TORSDOF 8
ENDMDL
MODEL 9
REMARK VINA RESULT:    -4.054      1.619      2.041
REMARK INTER + INTRA:          -8.338
REMARK INTER:                  -6.291
REMARK INTRA:                  -2.047
REMARK UNBOUND:                -2.388
REMARK  Name = 
REMARK  9 active torsions:
REMARK  status: ('A' for Active; 'I' for Inactive)
REMARK    1  A    between atoms: C_1  and  O_2
REMARK    2  A    between atoms: O_2  and  C_3
REMARK    3  A    between atoms: C_3  and  C_5
REMARK    4  A    between atoms: C_5  and  C_6
REMARK    5  A    between atoms: C_6  and  N_7
REMARK    6  A    between atoms: C_6  and  C_20
REMARK    7  A    between atoms: C_8  and  C_10
REMARK    8  A    between atoms: C_15  and  O_16
REMARK    9  A    between atoms: O_16  and  C_17
REMARK                            x       y       z     vdW  Elec       q    Type
REMARK                         _______ _______ _______ _____ _____    ______ ____
ROOT
ATOM      1  C   UNL     1     -30.199 -12.675  19.880  0.00  0.00    +0.117 C 
ENDROOT
BRANCH   1   2
ATOM      2  C   UNL     1     -28.788 -13.079  20.281  0.00  0.00    +0.009 A 
ATOM      3  C   UNL     1     -28.579 -13.930  21.385  0.00  0.00    +0.011 A 
ATOM      4  C   UNL     1     -27.288 -14.329  21.740  0.00  0.00    +0.039 A 
ATOM      5  C   UNL     1     -26.191 -13.891  20.996  0.00  0.00    +0.126 A 
ATOM      6  F   UNL     1     -24.938 -14.282  21.341  0.00  0.00    -0.205 F 
ATOM      7  C   UNL     1     -26.382 -13.054  19.894  0.00  0.00    +0.077 A 
ATOM      8  C   UNL     1     -27.671 -12.649  19.534  0.00  0.00    +0.131 A 
ATOM      9  F   UNL     1     -27.826 -11.846  18.451  0.00  0.00    -0.205 F 
ENDBRANCH   1   2
BRANCH   1  10
ATOM     10  N   UNL     1     -30.271 -12.430  18.434  0.00  0.00    -0.304 N 
ATOM     11  C   UNL     1     -30.728 -13.427  17.507  0.00  0.00    +0.248 C 
ATOM     12  O   UNL     1     -30.778 -14.638  17.861  0.00  0.00    -0.270 OA
ATOM     13  H   UNL     1     -29.936 -11.519  18.045  0.00  0.00    +0.150 HD
BRANCH  11  14
ATOM     14  C   UNL     1     -31.108 -13.056  16.125  0.00  0.00    +0.078 A 
ATOM     15  C   UNL     1     -30.924 -13.989  15.089  0.00  0.00    +0.017 A 
ATOM     16  C   UNL     1     -31.260 -13.664  13.774  0.00  0.00    +0.001 A 
ATOM     17  C   UNL     1     -31.790 -12.408  13.478  0.00  0.00    +0.004 A 
ATOM     18  C   UNL     1     -31.998 -11.478  14.497  0.00  0.00    +0.046 A 
ATOM     19  C   UNL     1     -31.671 -11.793  15.832  0.00  0.00    +0.139 A 
BRANCH  19  20
ATOM     20  O   UNL     1     -31.917 -10.893  16.883  0.00  0.00    -0.433 OA
BRANCH  20  21
ATOM     21  C   UNL     1     -33.109 -10.130  17.049  0.00  0.00    +0.541 C 
ATOM     22  F   UNL     1     -33.145  -9.138  16.087  0.00  0.00    -0.166 F 
ATOM     23  F   UNL     1     -34.215 -10.945  16.895  0.00  0.00    -0.166 F 
ENDBRANCH  20  21
ENDBRANCH  19  20
ENDBRANCH  11  14
ENDBRANCH   1  10
BRANCH   1  24
ATOM     24  C   UNL     1     -30.659 -11.422  20.653  0.00  0.00    +0.147 C 
BRANCH  24  25
ATOM     25  C   UNL     1     -32.134 -11.203  20.513  0.00  0.00    +0.309 C 
ATOM     26  O   UNL     1     -32.859 -12.113  20.028  0.00  0.00    -0.251 OA
BRANCH  25  28
ATOM     27  C   UNL     1     -34.099  -9.771  20.963  0.00  0.00    +0.280 C 
ATOM     28  O   UNL     1     -32.698 -10.010  20.972  0.00  0.00    -0.468 OA
ENDBRANCH  25  28
ENDBRANCH  24  25
ENDBRANCH   1  24
TORSDOF 8
ENDMDL
