MODEL 1
REMARK VINA RESULT:    -3.916      0.000      0.000
REMARK INTER + INTRA:          -5.027
REMARK INTER:                  -4.602
REMARK INTRA:                  -0.425
REMARK UNBOUND:                -0.425
REMARK  Name = 
REMARK  3 active torsions:
REMARK  status: ('A' for Active; 'I' for Inactive)
REMARK    1  A    between atoms: S_2  and  N_4
REMARK    2  A    between atoms: S_2  and  N_10
REMARK    3  A    between atoms: C_14  and  C_16
REMARK                            x       y       z     vdW  Elec       q    Type
REMARK                         _______ _______ _______ _____ _____    ______ ____
ROOT
ATOM      1  N   UNL     1     -30.812 -11.628  16.591  0.00  0.00    -0.166 NA
ATOM      2  C   UNL     1     -29.762 -12.656  16.524  0.00  0.00    +0.110 C 
ATOM      3  C   UNL     1     -30.366 -14.013  16.115  0.00  0.00    +0.018 C 
ATOM      4  C   UNL     1     -31.652 -13.857  15.285  0.00  0.00    +0.011 C 
ATOM      5  C   UNL     1     -31.580 -12.605  14.397  0.00  0.00    +0.038 C 
ATOM      6  C   UNL     1     -31.355 -11.326  15.248  0.00  0.00    +0.118 C 
ENDROOT
BRANCH   5   7
ATOM      7  C   UNL     1     -32.807 -12.481  13.532  0.00  0.00    -0.006 A 
ATOM      8  C   UNL     1     -33.923 -11.705  13.779  0.00  0.00    +0.138 A 
ATOM      9  N   UNL     1     -34.820 -11.896  12.792  0.00  0.00    -0.182 NA
ATOM     10  N   UNL     1     -34.305 -12.767  11.938  0.00  0.00    -0.284 N 
ATOM     11  C   UNL     1     -33.086 -13.148  12.357  0.00  0.00    +0.108 A 
ATOM     12  H   UNL     1     -34.791 -13.102  11.077  0.00  0.00    +0.188 HD
ENDBRANCH   5   7
BRANCH   1  14
ATOM     13  O   UNL     1     -28.794 -10.449  17.822  0.00  0.00    -0.141 OA
ATOM     14  S   UNL     1     -30.180 -10.167  17.309  0.00  0.00    +0.100 S 
ATOM     15  O   UNL     1     -30.079  -9.102  16.250  0.00  0.00    -0.141 OA
BRANCH  14  16
ATOM     16  N   UNL     1     -31.234  -9.649  18.618  0.00  0.00    -0.162 NA
ATOM     17  C   UNL     1     -30.477  -9.187  19.799  0.00  0.00    +0.138 C 
ATOM     18  C   UNL     1     -30.175 -10.331  20.790  0.00  0.00    +0.177 C 
ATOM     19  O   UNL     1     -30.223 -11.584  20.141  0.00  0.00    -0.377 OA
ATOM     20  C   UNL     1     -31.550 -11.866  19.734  0.00  0.00    +0.177 C 
ATOM     21  C   UNL     1     -32.213 -10.687  18.985  0.00  0.00    +0.138 C 
ENDBRANCH  14  16
ENDBRANCH   1  14
TORSDOF 3
ENDMDL
MODEL 2
REMARK VINA RESULT:    -3.830      2.463      3.067
REMARK INTER + INTRA:          -4.927
REMARK INTER:                  -4.760
REMARK INTRA:                  -0.167
REMARK UNBOUND:                -0.425
REMARK  Name = 
REMARK  3 active torsions:
REMARK  status: ('A' for Active; 'I' for Inactive)
REMARK    1  A    between atoms: S_2  and  N_4
REMARK    2  A    between atoms: S_2  and  N_10
REMARK    3  A    between atoms: C_14  and  C_16
REMARK                            x       y       z     vdW  Elec       q    Type
REMARK                         _______ _______ _______ _____ _____    ______ ____
ROOT
ATOM      1  N   UNL     1     -30.272 -11.944  16.652  0.00  0.00    -0.166 NA
ATOM      2  C   UNL     1     -30.976 -10.871  17.371  0.00  0.00    +0.110 C 
ATOM      3  C   UNL     1     -31.557  -9.850  16.374  0.00  0.00    +0.018 C 
ATOM      4  C   UNL     1     -31.846 -10.473  14.998  0.00  0.00    +0.011 C 
ATOM      5  C   UNL     1     -32.293 -11.937  15.143  0.00  0.00    +0.038 C 
ATOM      6  C   UNL     1     -31.216 -12.781  15.877  0.00  0.00    +0.118 C 
ENDROOT
BRANCH   5   7
ATOM      7  C   UNL     1     -32.641 -12.534  13.806  0.00  0.00    -0.006 A 
ATOM      8  C   UNL     1     -33.825 -12.384  13.110  0.00  0.00    +0.138 A 
ATOM      9  N   UNL     1     -33.765 -13.107  11.975  0.00  0.00    -0.182 NA
ATOM     10  N   UNL     1     -32.586 -13.707  11.938  0.00  0.00    -0.284 N 
ATOM     11  C   UNL     1     -31.877 -13.387  13.035  0.00  0.00    +0.108 A 
ATOM     12  H   UNL     1     -32.272 -14.337  11.167  0.00  0.00    +0.188 HD
ENDBRANCH   5   7
BRANCH   1  14
ATOM     13  O   UNL     1     -30.348 -13.935  18.387  0.00  0.00    -0.141 OA
ATOM     14  S   UNL     1     -29.391 -12.946  17.778  0.00  0.00    +0.100 S 
ATOM     15  O   UNL     1     -28.335 -13.716  17.031  0.00  0.00    -0.141 OA
BRANCH  14  16
ATOM     16  N   UNL     1     -28.665 -11.938  19.023  0.00  0.00    -0.162 NA
ATOM     17  C   UNL     1     -27.194 -12.069  19.064  0.00  0.00    +0.138 C 
ATOM     18  C   UNL     1     -26.729 -13.193  20.014  0.00  0.00    +0.177 C 
ATOM     19  O   UNL     1     -27.758 -14.138  20.217  0.00  0.00    -0.377 OA
ATOM     20  C   UNL     1     -28.824 -13.544  20.935  0.00  0.00    +0.177 C 
ATOM     21  C   UNL     1     -29.259 -12.180  20.349  0.00  0.00    +0.138 C 
ENDBRANCH  14  16
ENDBRANCH   1  14
TORSDOF 3
ENDMDL
MODEL 3
REMARK VINA RESULT:    -3.735      2.629      3.890
REMARK INTER + INTRA:          -4.815
REMARK INTER:                  -4.357
REMARK INTRA:                  -0.458
REMARK UNBOUND:                -0.425
REMARK  Name = 
REMARK  3 active torsions:
REMARK  status: ('A' for Active; 'I' for Inactive)
REMARK    1  A    between atoms: S_2  and  N_4
REMARK    2  A    between atoms: S_2  and  N_10
REMARK    3  A    between atoms: C_14  and  C_16
REMARK                            x       y       z     vdW  Elec       q    Type
REMARK                         _______ _______ _______ _____ _____    ______ ____
ROOT
ATOM      1  N   UNL     1     -31.444 -12.378  17.200  0.00  0.00    -0.166 NA
ATOM      2  C   UNL     1     -32.843 -12.271  16.758  0.00  0.00    +0.110 C 
ATOM      3  C   UNL     1     -32.907 -11.951  15.252  0.00  0.00    +0.018 C 
ATOM      4  C   UNL     1     -31.666 -12.451  14.493  0.00  0.00    +0.011 C 
ATOM      5  C   UNL     1     -31.136 -13.755  15.110  0.00  0.00    +0.038 C 
ATOM      6  C   UNL     1     -30.783 -13.563  16.610  0.00  0.00    +0.118 C 
ENDROOT
BRANCH   5   7
ATOM      7  C   UNL     1     -29.961 -14.286  14.333  0.00  0.00    -0.006 A 
ATOM      8  C   UNL     1     -28.742 -14.691  14.842  0.00  0.00    +0.138 A 
ATOM      9  N   UNL     1     -27.940 -15.062  13.824  0.00  0.00    -0.182 NA
ATOM     10  N   UNL     1     -28.614 -14.900  12.696  0.00  0.00    -0.284 N 
ATOM     11  C   UNL     1     -29.843 -14.427  12.965  0.00  0.00    +0.108 A 
ATOM     12  H   UNL     1     -28.230 -15.108  11.748  0.00  0.00    +0.188 HD
ENDBRANCH   5   7
BRANCH   1  14
ATOM     13  O   UNL     1     -32.772 -12.461  19.482  0.00  0.00    -0.141 OA
ATOM     14  S   UNL     1     -31.368 -12.471  18.942  0.00  0.00    +0.100 S 
ATOM     15  O   UNL     1     -30.723 -13.773  19.337  0.00  0.00    -0.141 OA
BRANCH  14  16
ATOM     16  N   UNL     1     -30.452 -11.106  19.566  0.00  0.00    -0.162 NA
ATOM     17  C   UNL     1     -29.994 -10.199  18.493  0.00  0.00    +0.138 C 
ATOM     18  C   UNL     1     -28.608 -10.593  17.940  0.00  0.00    +0.177 C 
ATOM     19  O   UNL     1     -28.333 -11.954  18.196  0.00  0.00    -0.377 OA
ATOM     20  C   UNL     1     -28.184 -12.164  19.588  0.00  0.00    +0.177 C 
ATOM     21  C   UNL     1     -29.329 -11.534  20.417  0.00  0.00    +0.138 C 
ENDBRANCH  14  16
ENDBRANCH   1  14
TORSDOF 3
ENDMDL
MODEL 4
REMARK VINA RESULT:    -3.730      1.941      2.477
REMARK INTER + INTRA:          -4.809
REMARK INTER:                  -4.545
REMARK INTRA:                  -0.264
REMARK UNBOUND:                -0.425
REMARK  Name = 
REMARK  3 active torsions:
REMARK  status: ('A' for Active; 'I' for Inactive)
REMARK    1  A    between atoms: S_2  and  N_4
REMARK    2  A    between atoms: S_2  and  N_10
REMARK    3  A    between atoms: C_14  and  C_16
REMARK                            x       y       z     vdW  Elec       q    Type
REMARK                         _______ _______ _______ _____ _____    ______ ____
ROOT
ATOM      1  N   UNL     1     -30.798 -13.613  16.519  0.00  0.00    -0.166 NA
ATOM      2  C   UNL     1     -29.453 -13.821  15.960  0.00  0.00    +0.110 C 
ATOM      3  C   UNL     1     -29.539 -14.577  14.621  0.00  0.00    +0.018 C 
ATOM      4  C   UNL     1     -30.883 -14.352  13.906  0.00  0.00    +0.011 C 
ATOM      5  C   UNL     1     -31.411 -12.933  14.169  0.00  0.00    +0.038 C 
ATOM      6  C   UNL     1     -31.585 -12.672  15.690  0.00  0.00    +0.118 C 
ENDROOT
BRANCH   5   7
ATOM      7  C   UNL     1     -32.693 -12.683  13.419  0.00  0.00    -0.006 A 
ATOM      8  C   UNL     1     -33.741 -11.872  13.811  0.00  0.00    +0.138 A 
ATOM      9  N   UNL     1     -34.722 -11.943  12.890  0.00  0.00    -0.182 NA
ATOM     10  N   UNL     1     -34.326 -12.774  11.938  0.00  0.00    -0.284 N 
ATOM     11  C   UNL     1     -33.101 -13.246  12.227  0.00  0.00    +0.108 A 
ATOM     12  H   UNL     1     -34.896 -13.019  11.099  0.00  0.00    +0.188 HD
ENDBRANCH   5   7
BRANCH   1  14
ATOM     13  O   UNL     1     -31.771 -11.979  18.352  0.00  0.00    -0.141 OA
ATOM     14  S   UNL     1     -30.686 -13.002  18.150  0.00  0.00    +0.100 S 
ATOM     15  O   UNL     1     -30.923 -14.132  19.116  0.00  0.00    -0.141 OA
BRANCH  14  16
ATOM     16  N   UNL     1     -29.100 -12.285  18.404  0.00  0.00    -0.162 NA
ATOM     17  C   UNL     1     -28.300 -13.030  19.398  0.00  0.00    +0.138 C 
ATOM     18  C   UNL     1     -28.520 -12.515  20.836  0.00  0.00    +0.177 C 
ATOM     19  O   UNL     1     -29.755 -11.841  20.946  0.00  0.00    -0.377 OA
ATOM     20  C   UNL     1     -29.721 -10.645  20.189  0.00  0.00    +0.177 C 
ATOM     21  C   UNL     1     -29.187 -10.856  18.753  0.00  0.00    +0.138 C 
ENDBRANCH  14  16
ENDBRANCH   1  14
TORSDOF 3
ENDMDL
MODEL 5
REMARK VINA RESULT:    -3.728      1.088      1.689
REMARK INTER + INTRA:          -4.807
REMARK INTER:                  -4.330
REMARK INTRA:                  -0.478
REMARK UNBOUND:                -0.425
REMARK  Name = 
REMARK  3 active torsions:
REMARK  status: ('A' for Active; 'I' for Inactive)
REMARK    1  A    between atoms: S_2  and  N_4
REMARK    2  A    between atoms: S_2  and  N_10
REMARK    3  A    between atoms: C_14  and  C_16
REMARK                            x       y       z     vdW  Elec       q    Type
REMARK                         _______ _______ _______ _____ _____    ______ ____
ROOT
ATOM      1  N   UNL     1     -30.758 -11.703  16.614  0.00  0.00    -0.166 NA
ATOM      2  C   UNL     1     -29.696 -12.718  16.538  0.00  0.00    +0.110 C 
ATOM      3  C   UNL     1     -30.285 -14.078  16.117  0.00  0.00    +0.018 C 
ATOM      4  C   UNL     1     -31.573 -13.930  15.289  0.00  0.00    +0.011 C 
ATOM      5  C   UNL     1     -31.516 -12.669  14.411  0.00  0.00    +0.038 C 
ATOM      6  C   UNL     1     -31.305 -11.395  15.274  0.00  0.00    +0.118 C 
ENDROOT
BRANCH   5   7
ATOM      7  C   UNL     1     -32.744 -12.551  13.548  0.00  0.00    -0.006 A 
ATOM      8  C   UNL     1     -33.888 -11.827  13.824  0.00  0.00    +0.138 A 
ATOM      9  N   UNL     1     -34.775 -12.007  12.826  0.00  0.00    -0.182 NA
ATOM     10  N   UNL     1     -34.228 -12.822  11.938  0.00  0.00    -0.284 N 
ATOM     11  C   UNL     1     -32.996 -13.177  12.344  0.00  0.00    +0.108 A 
ATOM     12  H   UNL     1     -34.700 -13.136  11.062  0.00  0.00    +0.188 HD
ENDBRANCH   5   7
BRANCH   1  14
ATOM     13  O   UNL     1     -28.669 -10.416  17.592  0.00  0.00    -0.141 OA
ATOM     14  S   UNL     1     -30.143 -10.241  17.344  0.00  0.00    +0.100 S 
ATOM     15  O   UNL     1     -30.323  -9.097  16.384  0.00  0.00    -0.141 OA
BRANCH  14  16
ATOM     16  N   UNL     1     -30.994  -9.932  18.852  0.00  0.00    -0.162 NA
ATOM     17  C   UNL     1     -31.810 -11.085  19.283  0.00  0.00    +0.138 C 
ATOM     18  C   UNL     1     -33.246 -11.035  18.718  0.00  0.00    +0.177 C 
ATOM     19  O   UNL     1     -33.302 -10.229  17.560  0.00  0.00    -0.377 OA
ATOM     20  C   UNL     1     -33.054  -8.877  17.900  0.00  0.00    +0.177 C 
ATOM     21  C   UNL     1     -31.801  -8.701  18.790  0.00  0.00    +0.138 C 
ENDBRANCH  14  16
ENDBRANCH   1  14
TORSDOF 3
ENDMDL
MODEL 6
REMARK VINA RESULT:    -3.548      1.790      2.798
REMARK INTER + INTRA:          -4.596
REMARK INTER:                  -4.254
REMARK INTRA:                  -0.341
REMARK UNBOUND:                -0.425
REMARK  Name = 
REMARK  3 active torsions:
REMARK  status: ('A' for Active; 'I' for Inactive)
REMARK    1  A    between atoms: S_2  and  N_4
REMARK    2  A    between atoms: S_2  and  N_10
REMARK    3  A    between atoms: C_14  and  C_16
REMARK                            x       y       z     vdW  Elec       q    Type
REMARK                         _______ _______ _______ _____ _____    ______ ____
ROOT
ATOM      1  N   UNL     1     -31.649 -10.034  16.544  0.00  0.00    -0.166 NA
ATOM      2  C   UNL     1     -32.844  -9.488  17.205  0.00  0.00    +0.110 C 
ATOM      3  C   UNL     1     -33.887  -9.056  16.156  0.00  0.00    +0.018 C 
ATOM      4  C   UNL     1     -33.757  -9.842  14.841  0.00  0.00    +0.011 C 
ATOM      5  C   UNL     1     -33.303 -11.286  15.109  0.00  0.00    +0.038 C 
ATOM      6  C   UNL     1     -31.947 -11.315  15.866  0.00  0.00    +0.118 C 
ENDROOT
BRANCH   5   7
ATOM      7  C   UNL     1     -33.236 -12.081  13.833  0.00  0.00    -0.006 A 
ATOM      8  C   UNL     1     -34.261 -12.293  12.930  0.00  0.00    +0.138 A 
ATOM      9  N   UNL     1     -33.817 -13.090  11.938  0.00  0.00    -0.182 NA
ATOM     10  N   UNL     1     -32.552 -13.388  12.191  0.00  0.00    -0.284 N 
ATOM     11  C   UNL     1     -32.166 -12.798  13.336  0.00  0.00    +0.108 A 
ATOM     12  H   UNL     1     -31.961 -13.998  11.585  0.00  0.00    +0.188 HD
ENDBRANCH   5   7
BRANCH   1  14
ATOM     13  O   UNL     1     -29.077  -9.804  17.100  0.00  0.00    -0.141 OA
ATOM     14  S   UNL     1     -30.371 -10.272  17.709  0.00  0.00    +0.100 S 
ATOM     15  O   UNL     1     -30.649  -9.427  18.924  0.00  0.00    -0.141 OA
BRANCH  14  16
ATOM     16  N   UNL     1     -30.275 -11.974  18.141  0.00  0.00    -0.162 NA
ATOM     17  C   UNL     1     -30.810 -12.241  19.493  0.00  0.00    +0.138 C 
ATOM     18  C   UNL     1     -29.727 -12.129  20.587  0.00  0.00    +0.177 C 
ATOM     19  O   UNL     1     -28.649 -11.330  20.148  0.00  0.00    -0.377 OA
ATOM     20  C   UNL     1     -27.962 -11.981  19.096  0.00  0.00    +0.177 C 
ATOM     21  C   UNL     1     -28.910 -12.508  17.993  0.00  0.00    +0.138 C 
ENDBRANCH  14  16
ENDBRANCH   1  14
TORSDOF 3
ENDMDL
MODEL 7
REMARK VINA RESULT:    -3.492      2.602      3.839
REMARK INTER + INTRA:          -4.530
REMARK INTER:                  -4.251
REMARK INTRA:                  -0.279
REMARK UNBOUND:                -0.425
REMARK  Name = 
REMARK  3 active torsions:
REMARK  status: ('A' for Active; 'I' for Inactive)
REMARK    1  A    between atoms: S_2  and  N_4
REMARK    2  A    between atoms: S_2  and  N_10
REMARK    3  A    between atoms: C_14  and  C_16
REMARK                            x       y       z     vdW  Elec       q    Type
REMARK                         _______ _______ _______ _____ _____    ______ ____
ROOT
ATOM      1  N   UNL     1     -31.231 -12.472  17.135  0.00  0.00    -0.166 NA
ATOM      2  C   UNL     1     -32.666 -12.461  16.811  0.00  0.00    +0.110 C 
ATOM      3  C   UNL     1     -32.874 -12.199  15.307  0.00  0.00    +0.018 C 
ATOM      4  C   UNL     1     -31.673 -12.653  14.461  0.00  0.00    +0.011 C 
ATOM      5  C   UNL     1     -31.016 -13.902  15.069  0.00  0.00    +0.038 C 
ATOM      6  C   UNL     1     -30.551 -13.637  16.527  0.00  0.00    +0.118 C 
ENDROOT
BRANCH   5   7
ATOM      7  C   UNL     1     -29.880 -14.392  14.211  0.00  0.00    -0.006 A 
ATOM      8  C   UNL     1     -28.597 -14.696  14.624  0.00  0.00    +0.138 A 
ATOM      9  N   UNL     1     -27.863 -15.060  13.554  0.00  0.00    -0.182 NA
ATOM     10  N   UNL     1     -28.642 -14.991  12.485  0.00  0.00    -0.284 N 
ATOM     11  C   UNL     1     -29.872 -14.584  12.844  0.00  0.00    +0.108 A 
ATOM     12  H   UNL     1     -28.328 -15.215  11.516  0.00  0.00    +0.188 HD
ENDBRANCH   5   7
BRANCH   1  14
ATOM     13  O   UNL     1     -32.319 -12.179  19.524  0.00  0.00    -0.141 OA
ATOM     14  S   UNL     1     -31.005 -12.499  18.866  0.00  0.00    +0.100 S 
ATOM     15  O   UNL     1     -30.596 -13.886  19.287  0.00  0.00    -0.141 OA
BRANCH  14  16
ATOM     16  N   UNL     1     -29.779 -11.322  19.320  0.00  0.00    -0.162 NA
ATOM     17  C   UNL     1     -30.323 -10.247  20.175  0.00  0.00    +0.138 C 
ATOM     18  C   UNL     1     -30.853  -9.052  19.356  0.00  0.00    +0.177 C 
ATOM     19  O   UNL     1     -31.167  -9.447  18.037  0.00  0.00    -0.377 OA
ATOM     20  C   UNL     1     -29.984  -9.800  17.344  0.00  0.00    +0.177 C 
ATOM     21  C   UNL     1     -29.083 -10.767  18.146  0.00  0.00    +0.138 C 
ENDBRANCH  14  16
ENDBRANCH   1  14
TORSDOF 3
ENDMDL
MODEL 8
REMARK VINA RESULT:    -3.492      2.007      2.379
REMARK INTER + INTRA:          -4.530
REMARK INTER:                  -4.270
REMARK INTRA:                  -0.260
REMARK UNBOUND:                -0.425
REMARK  Name = 
REMARK  3 active torsions:
REMARK  status: ('A' for Active; 'I' for Inactive)
REMARK    1  A    between atoms: S_2  and  N_4
REMARK    2  A    between atoms: S_2  and  N_10
REMARK    3  A    between atoms: C_14  and  C_16
REMARK                            x       y       z     vdW  Elec       q    Type
REMARK                         _______ _______ _______ _____ _____    ______ ____
ROOT
ATOM      1  N   UNL     1     -30.300 -13.980  15.542  0.00  0.00    -0.166 NA
ATOM      2  C   UNL     1     -29.112 -14.175  14.696  0.00  0.00    +0.110 C 
ATOM      3  C   UNL     1     -29.520 -14.741  13.323  0.00  0.00    +0.018 C 
ATOM      4  C   UNL     1     -30.959 -14.362  12.934  0.00  0.00    +0.011 C 
ATOM      5  C   UNL     1     -31.319 -12.967  13.470  0.00  0.00    +0.038 C 
ATOM      6  C   UNL     1     -31.166 -12.903  15.015  0.00  0.00    +0.118 C 
ENDROOT
BRANCH   5   7
ATOM      7  C   UNL     1     -32.704 -12.560  13.039  0.00  0.00    -0.006 A 
ATOM      8  C   UNL     1     -33.561 -11.701  13.699  0.00  0.00    +0.138 A 
ATOM      9  N   UNL     1     -34.721 -11.624  13.016  0.00  0.00    -0.182 NA
ATOM     10  N   UNL     1     -34.619 -12.409  11.955  0.00  0.00    -0.284 N 
ATOM     11  C   UNL     1     -33.410 -12.998  11.937  0.00  0.00    +0.108 A 
ATOM     12  H   UNL     1     -35.378 -12.544  11.251  0.00  0.00    +0.188 HD
ENDBRANCH   5   7
BRANCH   1  14
ATOM     13  O   UNL     1     -30.309 -14.691  18.086  0.00  0.00    -0.141 OA
ATOM     14  S   UNL     1     -29.819 -13.597  17.177  0.00  0.00    +0.100 S 
ATOM     15  O   UNL     1     -28.316 -13.563  17.253  0.00  0.00    -0.141 OA
BRANCH  14  16
ATOM     16  N   UNL     1     -30.504 -12.047  17.645  0.00  0.00    -0.162 NA
ATOM     17  C   UNL     1     -29.464 -11.044  17.955  0.00  0.00    +0.138 C 
ATOM     18  C   UNL     1     -29.052 -11.063  19.442  0.00  0.00    +0.177 C 
ATOM     19  O   UNL     1     -29.356 -12.309  20.033  0.00  0.00    -0.377 OA
ATOM     20  C   UNL     1     -30.759 -12.484  20.096  0.00  0.00    +0.177 C 
ATOM     21  C   UNL     1     -31.465 -12.177  18.754  0.00  0.00    +0.138 C 
ENDBRANCH  14  16
ENDBRANCH   1  14
TORSDOF 3
ENDMDL
