MODEL 1
REMARK VINA RESULT:    -4.676      0.000      0.000
REMARK INTER + INTRA:          -7.699
REMARK INTER:                  -6.452
REMARK INTRA:                  -1.247
REMARK UNBOUND:                -1.247
REMARK  Name = 
REMARK  9 active torsions:
REMARK  status: ('A' for Active; 'I' for Inactive)
REMARK    1  A    between atoms: C_1  and  C_2
REMARK    2  A    between atoms: C_2  and  C_3
REMARK    3  A    between atoms: C_5  and  C_6
REMARK    4  A    between atoms: C_7  and  C_9
REMARK    5  A    between atoms: N_11  and  C_12
REMARK    6  A    between atoms: C_12  and  C_13
REMARK    7  A    between atoms: C_12  and  C_17
REMARK    8  A    between atoms: C_13  and  C_14
REMARK    9  A    between atoms: C_14  and  O_16
REMARK                            x       y       z     vdW  Elec       q    Type
REMARK                         _______ _______ _______ _____ _____    ______ ____
ROOT
ATOM      1  C   UNL     1     -30.538 -10.350  16.414  0.00  0.00    +0.280 C 
ATOM      2  O   UNL     1     -30.120  -9.166  16.305  0.00  0.00    -0.267 OA
ATOM      3  N   UNL     1     -30.075 -11.180  17.490  0.00  0.00    -0.301 N 
ATOM      4  H   UNL     1     -30.404 -12.172  17.531  0.00  0.00    +0.150 HD
ENDROOT
BRANCH   1   9
ATOM      5  C   UNL     1     -32.275 -12.106  13.860  0.00  0.00    +0.106 A 
ATOM      6  C   UNL     1     -33.314 -11.268  14.216  0.00  0.00    +0.048 A 
ATOM      7  C   UNL     1     -32.814 -10.477  15.231  0.00  0.00    +0.000 A 
ATOM      8  C   UNL     1     -33.566  -9.405  15.956  0.00  0.00    +0.048 C 
ATOM      9  C   UNL     1     -31.503 -10.885  15.434  0.00  0.00    +0.192 A 
ATOM     10  O   UNL     1     -31.216 -11.860  14.599  0.00  0.00    -0.455 OA
BRANCH   5  12
ATOM     11  C   UNL     1     -33.566 -12.998  11.938  0.00  0.00    +0.012 C 
ATOM     12  C   UNL     1     -32.333 -13.175  12.816  0.00  0.00    +0.071 C 
ENDBRANCH   5  12
ENDBRANCH   1   9
BRANCH   3  13
ATOM     13  C   UNL     1     -29.076 -10.719  18.459  0.00  0.00    +0.121 C 
BRANCH  13  14
ATOM     14  C   UNL     1     -29.758 -10.258  19.722  0.00  0.00    +0.011 A 
ATOM     15  C   UNL     1     -30.512  -9.099  19.884  0.00  0.00    +0.013 A 
ATOM     16  C   UNL     1     -31.031  -8.954  21.174  0.00  0.00    +0.008 A 
ATOM     17  C   UNL     1     -30.694  -9.991  22.032  0.00  0.00    +0.045 A 
ATOM     18  S   UNL     1     -29.748 -11.093  21.184  0.00  0.00    -0.100 S 
ENDBRANCH  13  14
BRANCH  13  19
ATOM     19  C   UNL     1     -28.065 -11.844  18.742  0.00  0.00    +0.148 C 
BRANCH  19  20
ATOM     20  C   UNL     1     -28.536 -13.157  18.196  0.00  0.00    +0.307 C 
ATOM     21  O   UNL     1     -28.356 -13.437  16.981  0.00  0.00    -0.251 OA
BRANCH  20  22
ATOM     22  O   UNL     1     -29.133 -14.086  19.043  0.00  0.00    -0.481 OA
ATOM     23  H   UNL     1     -29.930 -14.632  18.737  0.00  0.00    +0.295 HD
ENDBRANCH  20  22
ENDBRANCH  19  20
ENDBRANCH  13  19
ENDBRANCH   3  13
TORSDOF 7
ENDMDL
MODEL 2
REMARK VINA RESULT:    -4.613      2.450      3.846
REMARK INTER + INTRA:          -7.612
REMARK INTER:                  -6.280
REMARK INTRA:                  -1.332
REMARK UNBOUND:                -1.247
REMARK  Name = 
REMARK  9 active torsions:
REMARK  status: ('A' for Active; 'I' for Inactive)
REMARK    1  A    between atoms: C_1  and  C_2
REMARK    2  A    between atoms: C_2  and  C_3
REMARK    3  A    between atoms: C_5  and  C_6
REMARK    4  A    between atoms: C_7  and  C_9
REMARK    5  A    between atoms: N_11  and  C_12
REMARK    6  A    between atoms: C_12  and  C_13
REMARK    7  A    between atoms: C_12  and  C_17
REMARK    8  A    between atoms: C_13  and  C_14
REMARK    9  A    between atoms: C_14  and  O_16
REMARK                            x       y       z     vdW  Elec       q    Type
REMARK                         _______ _______ _______ _____ _____    ______ ____
ROOT
ATOM      1  C   UNL     1     -31.380 -13.526  16.680  0.00  0.00    +0.280 C 
ATOM      2  O   UNL     1     -32.028 -14.422  17.286  0.00  0.00    -0.267 OA
ATOM      3  N   UNL     1     -30.779 -12.450  17.417  0.00  0.00    -0.301 N 
ATOM      4  H   UNL     1     -30.285 -11.698  16.885  0.00  0.00    +0.150 HD
ENDROOT
BRANCH   1   9
ATOM      5  C   UNL     1     -31.731 -13.307  13.152  0.00  0.00    +0.106 A 
ATOM      6  C   UNL     1     -30.501 -13.938  13.153  0.00  0.00    +0.048 A 
ATOM      7  C   UNL     1     -30.185 -14.118  14.485  0.00  0.00    +0.000 A 
ATOM      8  C   UNL     1     -28.940 -14.761  15.009  0.00  0.00    +0.048 C 
ATOM      9  C   UNL     1     -31.239 -13.583  15.212  0.00  0.00    +0.192 A 
ATOM     10  O   UNL     1     -32.142 -13.106  14.384  0.00  0.00    -0.455 OA
BRANCH   5  12
ATOM     11  C   UNL     1     -33.971 -12.731  12.252  0.00  0.00    +0.012 C 
ATOM     12  C   UNL     1     -32.486 -12.869  11.938  0.00  0.00    +0.071 C 
ENDBRANCH   5  12
ENDBRANCH   1   9
BRANCH   3  13
ATOM     13  C   UNL     1     -30.933 -12.315  18.869  0.00  0.00    +0.121 C 
BRANCH  13  14
ATOM     14  C   UNL     1     -29.674 -12.764  19.565  0.00  0.00    +0.011 A 
ATOM     15  C   UNL     1     -29.554 -13.151  20.896  0.00  0.00    +0.013 A 
ATOM     16  C   UNL     1     -28.254 -13.533  21.246  0.00  0.00    +0.008 A 
ATOM     17  C   UNL     1     -27.348 -13.451  20.198  0.00  0.00    +0.045 A 
ATOM     18  S   UNL     1     -28.164 -12.904  18.834  0.00  0.00    -0.100 S 
ENDBRANCH  13  14
BRANCH  13  19
ATOM     19  C   UNL     1     -31.284 -10.859  19.223  0.00  0.00    +0.148 C 
BRANCH  19  20
ATOM     20  C   UNL     1     -30.229  -9.907  18.747  0.00  0.00    +0.307 C 
ATOM     21  O   UNL     1     -29.923  -9.863  17.526  0.00  0.00    -0.251 OA
BRANCH  20  22
ATOM     22  O   UNL     1     -29.618  -9.042  19.650  0.00  0.00    -0.481 OA
ATOM     23  H   UNL     1     -30.152  -8.318  20.118  0.00  0.00    +0.295 HD
ENDBRANCH  20  22
ENDBRANCH  19  20
ENDBRANCH  13  19
ENDBRANCH   3  13
TORSDOF 7
ENDMDL
MODEL 3
REMARK VINA RESULT:    -4.484      3.362      7.136
REMARK INTER + INTRA:          -7.435
REMARK INTER:                  -5.985
REMARK INTRA:                  -1.450
REMARK UNBOUND:                -1.247
REMARK  Name = 
REMARK  9 active torsions:
REMARK  status: ('A' for Active; 'I' for Inactive)
REMARK    1  A    between atoms: C_1  and  C_2
REMARK    2  A    between atoms: C_2  and  C_3
REMARK    3  A    between atoms: C_5  and  C_6
REMARK    4  A    between atoms: C_7  and  C_9
REMARK    5  A    between atoms: N_11  and  C_12
REMARK    6  A    between atoms: C_12  and  C_13
REMARK    7  A    between atoms: C_12  and  C_17
REMARK    8  A    between atoms: C_13  and  C_14
REMARK    9  A    between atoms: C_14  and  O_16
REMARK                            x       y       z     vdW  Elec       q    Type
REMARK                         _______ _______ _______ _____ _____    ______ ____
ROOT
ATOM      1  C   UNL     1     -29.064 -12.205  17.836  0.00  0.00    +0.280 C 
ATOM      2  O   UNL     1     -28.871 -11.001  17.518  0.00  0.00    -0.267 OA
ATOM      3  N   UNL     1     -29.946 -13.023  17.052  0.00  0.00    -0.301 N 
ATOM      4  H   UNL     1     -30.122 -14.005  17.364  0.00  0.00    +0.150 HD
ENDROOT
BRANCH   1   9
ATOM      5  C   UNL     1     -26.803 -13.574  20.210  0.00  0.00    +0.106 A 
ATOM      6  C   UNL     1     -27.915 -13.569  21.030  0.00  0.00    +0.048 A 
ATOM      7  C   UNL     1     -28.937 -13.055  20.256  0.00  0.00    +0.000 A 
ATOM      8  C   UNL     1     -30.350 -12.845  20.701  0.00  0.00    +0.048 C 
ATOM      9  C   UNL     1     -28.383 -12.775  19.015  0.00  0.00    +0.192 A 
ATOM     10  O   UNL     1     -27.108 -13.096  19.024  0.00  0.00    -0.455 OA
BRANCH   5  12
ATOM     11  C   UNL     1     -25.463 -14.725  21.953  0.00  0.00    +0.012 C 
ATOM     12  C   UNL     1     -25.430 -14.018  20.603  0.00  0.00    +0.071 C 
ENDBRANCH   5  12
ENDBRANCH   1   9
BRANCH   3  13
ATOM     13  C   UNL     1     -30.690 -12.494  15.905  0.00  0.00    +0.121 C 
BRANCH  13  14
ATOM     14  C   UNL     1     -30.472 -13.373  14.700  0.00  0.00    +0.011 A 
ATOM     15  C   UNL     1     -29.554 -14.413  14.586  0.00  0.00    +0.013 A 
ATOM     16  C   UNL     1     -29.599 -15.056  13.345  0.00  0.00    +0.008 A 
ATOM     17  C   UNL     1     -30.549 -14.532  12.479  0.00  0.00    +0.045 A 
ATOM     18  S   UNL     1     -31.334 -13.266  13.259  0.00  0.00    -0.100 S 
ENDBRANCH  13  14
BRANCH  13  19
ATOM     19  C   UNL     1     -32.183 -12.381  16.258  0.00  0.00    +0.148 C 
BRANCH  19  20
ATOM     20  C   UNL     1     -32.525 -13.192  17.472  0.00  0.00    +0.307 C 
ATOM     21  O   UNL     1     -33.103 -12.649  18.450  0.00  0.00    -0.251 OA
BRANCH  20  22
ATOM     22  O   UNL     1     -32.242 -14.554  17.498  0.00  0.00    -0.481 OA
ATOM     23  H   UNL     1     -31.652 -14.948  18.221  0.00  0.00    +0.295 HD
ENDBRANCH  20  22
ENDBRANCH  19  20
ENDBRANCH  13  19
ENDBRANCH   3  13
TORSDOF 7
ENDMDL
MODEL 4
REMARK VINA RESULT:    -4.324      2.830      6.573
REMARK INTER + INTRA:          -7.213
REMARK INTER:                  -6.313
REMARK INTRA:                  -0.901
REMARK UNBOUND:                -1.247
REMARK  Name = 
REMARK  9 active torsions:
REMARK  status: ('A' for Active; 'I' for Inactive)
REMARK    1  A    between atoms: C_1  and  C_2
REMARK    2  A    between atoms: C_2  and  C_3
REMARK    3  A    between atoms: C_5  and  C_6
REMARK    4  A    between atoms: C_7  and  C_9
REMARK    5  A    between atoms: N_11  and  C_12
REMARK    6  A    between atoms: C_12  and  C_13
REMARK    7  A    between atoms: C_12  and  C_17
REMARK    8  A    between atoms: C_13  and  C_14
REMARK    9  A    between atoms: C_14  and  O_16
REMARK                            x       y       z     vdW  Elec       q    Type
REMARK                         _______ _______ _______ _____ _____    ______ ____
ROOT
ATOM      1  C   UNL     1     -28.779 -10.991  18.548  0.00  0.00    +0.280 C 
ATOM      2  O   UNL     1     -28.031 -10.341  17.769  0.00  0.00    -0.267 OA
ATOM      3  N   UNL     1     -30.170 -10.652  18.660  0.00  0.00    -0.301 N 
ATOM      4  H   UNL     1     -30.756 -11.179  19.347  0.00  0.00    +0.150 HD
ENDROOT
BRANCH   1   9
ATOM      5  C   UNL     1     -26.764 -13.406  20.199  0.00  0.00    +0.106 A 
ATOM      6  C   UNL     1     -27.979 -13.853  20.682  0.00  0.00    +0.048 A 
ATOM      7  C   UNL     1     -28.923 -13.011  20.129  0.00  0.00    +0.000 A 
ATOM      8  C   UNL     1     -30.400 -13.085  20.353  0.00  0.00    +0.048 C 
ATOM      9  C   UNL     1     -28.224 -12.101  19.347  0.00  0.00    +0.192 A 
ATOM     10  O   UNL     1     -26.938 -12.366  19.415  0.00  0.00    -0.455 OA
BRANCH   5  12
ATOM     11  C   UNL     1     -25.483 -14.727  21.866  0.00  0.00    +0.012 C 
ATOM     12  C   UNL     1     -25.425 -13.981  20.538  0.00  0.00    +0.071 C 
ENDBRANCH   5  12
ENDBRANCH   1   9
BRANCH   3  13
ATOM     13  C   UNL     1     -30.761  -9.525  17.932  0.00  0.00    +0.121 C 
BRANCH  13  14
ATOM     14  C   UNL     1     -31.675 -10.036  16.847  0.00  0.00    +0.011 A 
ATOM     15  C   UNL     1     -31.291 -10.588  15.629  0.00  0.00    +0.013 A 
ATOM     16  C   UNL     1     -32.373 -10.985  14.837  0.00  0.00    +0.008 A 
ATOM     17  C   UNL     1     -33.609 -10.752  15.423  0.00  0.00    +0.045 A 
ATOM     18  S   UNL     1     -33.356 -10.050  16.930  0.00  0.00    -0.100 S 
ENDBRANCH  13  14
BRANCH  13  19
ATOM     19  C   UNL     1     -31.508  -8.605  18.912  0.00  0.00    +0.148 C 
BRANCH  19  20
ATOM     20  C   UNL     1     -30.812  -8.531  20.237  0.00  0.00    +0.307 C 
ATOM     21  O   UNL     1     -31.005  -9.426  21.102  0.00  0.00    -0.251 OA
BRANCH  20  22
ATOM     22  O   UNL     1     -29.917  -7.497  20.494  0.00  0.00    -0.481 OA
ATOM     23  H   UNL     1     -29.855  -6.698  19.874  0.00  0.00    +0.295 HD
ENDBRANCH  20  22
ENDBRANCH  19  20
ENDBRANCH  13  19
ENDBRANCH   3  13
TORSDOF 7
ENDMDL
MODEL 5
REMARK VINA RESULT:    -4.217      3.078      4.352
REMARK INTER + INTRA:          -7.066
REMARK INTER:                  -5.858
REMARK INTRA:                  -1.208
REMARK UNBOUND:                -1.247
REMARK  Name = 
REMARK  9 active torsions:
REMARK  status: ('A' for Active; 'I' for Inactive)
REMARK    1  A    between atoms: C_1  and  C_2
REMARK    2  A    between atoms: C_2  and  C_3
REMARK    3  A    between atoms: C_5  and  C_6
REMARK    4  A    between atoms: C_7  and  C_9
REMARK    5  A    between atoms: N_11  and  C_12
REMARK    6  A    between atoms: C_12  and  C_13
REMARK    7  A    between atoms: C_12  and  C_17
REMARK    8  A    between atoms: C_13  and  C_14
REMARK    9  A    between atoms: C_14  and  O_16
REMARK                            x       y       z     vdW  Elec       q    Type
REMARK                         _______ _______ _______ _____ _____    ______ ____
ROOT
ATOM      1  C   UNL     1     -30.650 -14.153  17.375  0.00  0.00    +0.280 C 
ATOM      2  O   UNL     1     -31.354 -15.046  17.919  0.00  0.00    -0.267 OA
ATOM      3  N   UNL     1     -29.898 -13.237  18.185  0.00  0.00    -0.301 N 
ATOM      4  H   UNL     1     -29.357 -12.479  17.709  0.00  0.00    +0.150 HD
ENDROOT
BRANCH   1   9
ATOM      5  C   UNL     1     -29.975 -14.436  13.899  0.00  0.00    +0.106 A 
ATOM      6  C   UNL     1     -30.969 -13.483  13.793  0.00  0.00    +0.048 A 
ATOM      7  C   UNL     1     -31.372 -13.230  15.089  0.00  0.00    +0.000 A 
ATOM      8  C   UNL     1     -32.438 -12.264  15.502  0.00  0.00    +0.048 C 
ATOM      9  C   UNL     1     -30.601 -14.047  15.904  0.00  0.00    +0.192 A 
ATOM     10  O   UNL     1     -29.780 -14.754  15.159  0.00  0.00    -0.455 OA
BRANCH   5  12
ATOM     11  C   UNL     1     -27.797 -14.570  12.716  0.00  0.00    +0.012 C 
ATOM     12  C   UNL     1     -29.239 -15.061  12.757  0.00  0.00    +0.071 C 
ENDBRANCH   5  12
ENDBRANCH   1   9
BRANCH   3  13
ATOM     13  C   UNL     1     -29.954 -13.262  19.650  0.00  0.00    +0.121 C 
BRANCH  13  14
ATOM     14  C   UNL     1     -28.571 -13.467  20.215  0.00  0.00    +0.011 A 
ATOM     15  C   UNL     1     -28.249 -14.093  21.416  0.00  0.00    +0.013 A 
ATOM     16  C   UNL     1     -26.873 -14.144  21.660  0.00  0.00    +0.008 A 
ATOM     17  C   UNL     1     -26.106 -13.563  20.660  0.00  0.00    +0.045 A 
ATOM     18  S   UNL     1     -27.142 -12.986  19.468  0.00  0.00    -0.100 S 
ENDBRANCH  13  14
BRANCH  13  19
ATOM     19  C   UNL     1     -30.588 -11.960  20.170  0.00  0.00    +0.148 C 
BRANCH  19  20
ATOM     20  C   UNL     1     -32.084 -12.052  20.203  0.00  0.00    +0.307 C 
ATOM     21  O   UNL     1     -32.743 -11.321  20.988  0.00  0.00    -0.251 OA
BRANCH  20  22
ATOM     22  O   UNL     1     -32.744 -12.914  19.334  0.00  0.00    -0.481 OA
ATOM     23  H   UNL     1     -32.307 -13.218  18.472  0.00  0.00    +0.295 HD
ENDBRANCH  20  22
ENDBRANCH  19  20
ENDBRANCH  13  19
ENDBRANCH   3  13
TORSDOF 7
ENDMDL
MODEL 6
REMARK VINA RESULT:    -4.216      2.595      3.818
REMARK INTER + INTRA:          -7.065
REMARK INTER:                  -5.772
REMARK INTRA:                  -1.293
REMARK UNBOUND:                -1.247
REMARK  Name = 
REMARK  9 active torsions:
REMARK  status: ('A' for Active; 'I' for Inactive)
REMARK    1  A    between atoms: C_1  and  C_2
REMARK    2  A    between atoms: C_2  and  C_3
REMARK    3  A    between atoms: C_5  and  C_6
REMARK    4  A    between atoms: C_7  and  C_9
REMARK    5  A    between atoms: N_11  and  C_12
REMARK    6  A    between atoms: C_12  and  C_13
REMARK    7  A    between atoms: C_12  and  C_17
REMARK    8  A    between atoms: C_13  and  C_14
REMARK    9  A    between atoms: C_14  and  O_16
REMARK                            x       y       z     vdW  Elec       q    Type
REMARK                         _______ _______ _______ _____ _____    ______ ____
ROOT
ATOM      1  C   UNL     1     -31.314 -13.576  16.618  0.00  0.00    +0.280 C 
ATOM      2  O   UNL     1     -32.059 -14.407  17.204  0.00  0.00    -0.267 OA
ATOM      3  N   UNL     1     -30.683 -12.524  17.365  0.00  0.00    -0.301 N 
ATOM      4  H   UNL     1     -30.106 -11.823  16.847  0.00  0.00    +0.150 HD
ENDROOT
BRANCH   1   9
ATOM      5  C   UNL     1     -30.212 -14.322  13.325  0.00  0.00    +0.106 A 
ATOM      6  C   UNL     1     -31.224 -13.454  12.963  0.00  0.00    +0.048 A 
ATOM      7  C   UNL     1     -31.791 -13.039  14.152  0.00  0.00    +0.000 A 
ATOM      8  C   UNL     1     -32.937 -12.087  14.290  0.00  0.00    +0.048 C 
ATOM      9  C   UNL     1     -31.091 -13.683  15.164  0.00  0.00    +0.192 A 
ATOM     10  O   UNL     1     -30.158 -14.441  14.632  0.00  0.00    -0.455 OA
BRANCH   5  12
ATOM     11  C   UNL     1     -27.947 -14.402  12.313  0.00  0.00    +0.012 C 
ATOM     12  C   UNL     1     -29.318 -15.062  12.381  0.00  0.00    +0.071 C 
ENDBRANCH   5  12
ENDBRANCH   1   9
BRANCH   3  13
ATOM     13  C   UNL     1     -30.914 -12.339  18.801  0.00  0.00    +0.121 C 
BRANCH  13  14
ATOM     14  C   UNL     1     -29.692 -12.760  19.578  0.00  0.00    +0.011 A 
ATOM     15  C   UNL     1     -29.640 -13.090  20.929  0.00  0.00    +0.013 A 
ATOM     16  C   UNL     1     -28.361 -13.457  21.359  0.00  0.00    +0.008 A 
ATOM     17  C   UNL     1     -27.403 -13.423  20.355  0.00  0.00    +0.045 A 
ATOM     18  S   UNL     1     -28.149 -12.933  18.929  0.00  0.00    -0.100 S 
ENDBRANCH  13  14
BRANCH  13  19
ATOM     19  C   UNL     1     -31.284 -10.872  19.085  0.00  0.00    +0.148 C 
BRANCH  19  20
ATOM     20  C   UNL     1     -30.186  -9.938  18.677  0.00  0.00    +0.307 C 
ATOM     21  O   UNL     1     -29.857  -9.843  17.465  0.00  0.00    -0.251 OA
BRANCH  20  22
ATOM     22  O   UNL     1     -29.561  -9.144  19.633  0.00  0.00    -0.481 OA
ATOM     23  H   UNL     1     -28.816  -8.507  19.373  0.00  0.00    +0.295 HD
ENDBRANCH  20  22
ENDBRANCH  19  20
ENDBRANCH  13  19
ENDBRANCH   3  13
TORSDOF 7
ENDMDL
MODEL 7
REMARK VINA RESULT:    -4.173      2.963      6.551
REMARK INTER + INTRA:          -7.006
REMARK INTER:                  -5.856
REMARK INTRA:                  -1.150
REMARK UNBOUND:                -1.247
REMARK  Name = 
REMARK  9 active torsions:
REMARK  status: ('A' for Active; 'I' for Inactive)
REMARK    1  A    between atoms: C_1  and  C_2
REMARK    2  A    between atoms: C_2  and  C_3
REMARK    3  A    between atoms: C_5  and  C_6
REMARK    4  A    between atoms: C_7  and  C_9
REMARK    5  A    between atoms: N_11  and  C_12
REMARK    6  A    between atoms: C_12  and  C_13
REMARK    7  A    between atoms: C_12  and  C_17
REMARK    8  A    between atoms: C_13  and  C_14
REMARK    9  A    between atoms: C_14  and  O_16
REMARK                            x       y       z     vdW  Elec       q    Type
REMARK                         _______ _______ _______ _____ _____    ______ ____
ROOT
ATOM      1  C   UNL     1     -30.470 -13.252  19.443  0.00  0.00    +0.280 C 
ATOM      2  O   UNL     1     -31.668 -13.137  19.817  0.00  0.00    -0.267 OA
ATOM      3  N   UNL     1     -30.168 -13.492  18.060  0.00  0.00    -0.301 N 
ATOM      4  H   UNL     1     -29.168 -13.627  17.785  0.00  0.00    +0.150 HD
ENDROOT
BRANCH   1   9
ATOM      5  C   UNL     1     -27.587 -13.640  21.482  0.00  0.00    +0.106 A 
ATOM      6  C   UNL     1     -28.039 -12.470  22.062  0.00  0.00    +0.048 A 
ATOM      7  C   UNL     1     -29.197 -12.150  21.383  0.00  0.00    +0.000 A 
ATOM      8  C   UNL     1     -30.062 -10.957  21.642  0.00  0.00    +0.048 C 
ATOM      9  C   UNL     1     -29.376 -13.141  20.428  0.00  0.00    +0.192 A 
ATOM     10  O   UNL     1     -28.395 -14.012  20.515  0.00  0.00    -0.455 OA
BRANCH   5  12
ATOM     11  C   UNL     1     -25.335 -14.342  20.709  0.00  0.00    +0.012 C 
ATOM     12  C   UNL     1     -26.338 -14.374  21.855  0.00  0.00    +0.071 C 
ENDBRANCH   5  12
ENDBRANCH   1   9
BRANCH   3  13
ATOM     13  C   UNL     1     -31.216 -13.665  17.050  0.00  0.00    +0.121 C 
BRANCH  13  14
ATOM     14  C   UNL     1     -31.522 -12.343  16.393  0.00  0.00    +0.011 A 
ATOM     15  C   UNL     1     -30.801 -11.161  16.531  0.00  0.00    +0.013 A 
ATOM     16  C   UNL     1     -31.326 -10.103  15.780  0.00  0.00    +0.008 A 
ATOM     17  C   UNL     1     -32.455 -10.444  15.048  0.00  0.00    +0.045 A 
ATOM     18  S   UNL     1     -32.801 -12.064  15.335  0.00  0.00    -0.100 S 
ENDBRANCH  13  14
BRANCH  13  19
ATOM     19  C   UNL     1     -30.778 -14.720  16.019  0.00  0.00    +0.148 C 
BRANCH  19  20
ATOM     20  C   UNL     1     -29.403 -14.438  15.494  0.00  0.00    +0.307 C 
ATOM     21  O   UNL     1     -29.238 -14.141  14.282  0.00  0.00    -0.251 OA
BRANCH  20  22
ATOM     22  O   UNL     1     -28.313 -14.464  16.359  0.00  0.00    -0.481 OA
ATOM     23  H   UNL     1     -27.646 -15.226  16.333  0.00  0.00    +0.295 HD
ENDBRANCH  20  22
ENDBRANCH  19  20
ENDBRANCH  13  19
ENDBRANCH   3  13
TORSDOF 7
ENDMDL
MODEL 8
REMARK VINA RESULT:    -4.103      2.342      3.071
REMARK INTER + INTRA:          -6.909
REMARK INTER:                  -5.630
REMARK INTRA:                  -1.278
REMARK UNBOUND:                -1.247
REMARK  Name = 
REMARK  9 active torsions:
REMARK  status: ('A' for Active; 'I' for Inactive)
REMARK    1  A    between atoms: C_1  and  C_2
REMARK    2  A    between atoms: C_2  and  C_3
REMARK    3  A    between atoms: C_5  and  C_6
REMARK    4  A    between atoms: C_7  and  C_9
REMARK    5  A    between atoms: N_11  and  C_12
REMARK    6  A    between atoms: C_12  and  C_13
REMARK    7  A    between atoms: C_12  and  C_17
REMARK    8  A    between atoms: C_13  and  C_14
REMARK    9  A    between atoms: C_14  and  O_16
REMARK                            x       y       z     vdW  Elec       q    Type
REMARK                         _______ _______ _______ _____ _____    ______ ____
ROOT
ATOM      1  C   UNL     1     -30.847 -11.492  16.474  0.00  0.00    +0.280 C 
ATOM      2  O   UNL     1     -30.191 -10.419  16.404  0.00  0.00    -0.267 OA
ATOM      3  N   UNL     1     -31.445 -11.891  17.717  0.00  0.00    -0.301 N 
ATOM      4  H   UNL     1     -31.946 -12.807  17.757  0.00  0.00    +0.150 HD
ENDROOT
BRANCH   1   9
ATOM      5  C   UNL     1     -31.697 -12.972  13.358  0.00  0.00    +0.106 A 
ATOM      6  C   UNL     1     -30.839 -13.969  13.782  0.00  0.00    +0.048 A 
ATOM      7  C   UNL     1     -30.393 -13.563  15.023  0.00  0.00    +0.000 A 
ATOM      8  C   UNL     1     -29.434 -14.310  15.896  0.00  0.00    +0.048 C 
ATOM      9  C   UNL     1     -31.002 -12.341  15.276  0.00  0.00    +0.192 A 
ATOM     10  O   UNL     1     -31.771 -12.019  14.260  0.00  0.00    -0.455 OA
BRANCH   5  12
ATOM     11  C   UNL     1     -33.914 -12.762  12.264  0.00  0.00    +0.012 C 
ATOM     12  C   UNL     1     -32.417 -12.938  12.047  0.00  0.00    +0.071 C 
ENDBRANCH   5  12
ENDBRANCH   1   9
BRANCH   3  13
ATOM     13  C   UNL     1     -31.277 -11.114  18.949  0.00  0.00    +0.121 C 
BRANCH  13  14
ATOM     14  C   UNL     1     -32.212  -9.932  18.944  0.00  0.00    +0.011 A 
ATOM     15  C   UNL     1     -31.870  -8.602  19.173  0.00  0.00    +0.013 A 
ATOM     16  C   UNL     1     -32.960  -7.729  19.085  0.00  0.00    +0.008 A 
ATOM     17  C   UNL     1     -34.159  -8.361  18.786  0.00  0.00    +0.045 A 
ATOM     18  S   UNL     1     -33.864 -10.009  18.630  0.00  0.00    -0.100 S 
ENDBRANCH  13  14
BRANCH  13  19
ATOM     19  C   UNL     1     -31.517 -12.017  20.172  0.00  0.00    +0.148 C 
BRANCH  19  20
ATOM     20  C   UNL     1     -30.691 -13.266  20.104  0.00  0.00    +0.307 C 
ATOM     21  O   UNL     1     -29.766 -13.457  20.937  0.00  0.00    -0.251 OA
BRANCH  20  22
ATOM     22  O   UNL     1     -30.978 -14.234  19.147  0.00  0.00    -0.481 OA
ATOM     23  H   UNL     1     -31.860 -14.733  19.159  0.00  0.00    +0.295 HD
ENDBRANCH  20  22
ENDBRANCH  19  20
ENDBRANCH  13  19
ENDBRANCH   3  13
TORSDOF 7
ENDMDL
MODEL 9
REMARK VINA RESULT:    -4.039      1.679      2.049
REMARK INTER + INTRA:          -6.821
REMARK INTER:                  -5.616
REMARK INTRA:                  -1.205
REMARK UNBOUND:                -1.247
REMARK  Name = 
REMARK  9 active torsions:
REMARK  status: ('A' for Active; 'I' for Inactive)
REMARK    1  A    between atoms: C_1  and  C_2
REMARK    2  A    between atoms: C_2  and  C_3
REMARK    3  A    between atoms: C_5  and  C_6
REMARK    4  A    between atoms: C_7  and  C_9
REMARK    5  A    between atoms: N_11  and  C_12
REMARK    6  A    between atoms: C_12  and  C_13
REMARK    7  A    between atoms: C_12  and  C_17
REMARK    8  A    between atoms: C_13  and  C_14
REMARK    9  A    between atoms: C_14  and  O_16
REMARK                            x       y       z     vdW  Elec       q    Type
REMARK                         _______ _______ _______ _____ _____    ______ ____
ROOT
ATOM      1  C   UNL     1     -30.791 -10.434  16.699  0.00  0.00    +0.280 C 
ATOM      2  O   UNL     1     -29.852  -9.620  16.486  0.00  0.00    -0.267 OA
ATOM      3  N   UNL     1     -31.080 -10.864  18.038  0.00  0.00    -0.301 N 
ATOM      4  H   UNL     1     -31.836 -11.573  18.180  0.00  0.00    +0.150 HD
ENDROOT
BRANCH   1   9
ATOM      5  C   UNL     1     -32.125 -12.149  13.889  0.00  0.00    +0.106 A 
ATOM      6  C   UNL     1     -33.187 -11.282  14.068  0.00  0.00    +0.048 A 
ATOM      7  C   UNL     1     -32.841 -10.502  15.154  0.00  0.00    +0.000 A 
ATOM      8  C   UNL     1     -33.674  -9.409  15.746  0.00  0.00    +0.048 C 
ATOM      9  C   UNL     1     -31.593 -10.944  15.571  0.00  0.00    +0.192 A 
ATOM     10  O   UNL     1     -31.198 -11.929  14.794  0.00  0.00    -0.455 OA
BRANCH   5  12
ATOM     11  C   UNL     1     -33.266 -13.188  11.945  0.00  0.00    +0.012 C 
ATOM     12  C   UNL     1     -32.038 -13.218  12.846  0.00  0.00    +0.071 C 
ENDBRANCH   5  12
ENDBRANCH   1   9
BRANCH   3  13
ATOM     13  C   UNL     1     -30.281 -10.431  19.188  0.00  0.00    +0.121 C 
BRANCH  13  14
ATOM     14  C   UNL     1     -30.926  -9.237  19.844  0.00  0.00    +0.011 A 
ATOM     15  C   UNL     1     -30.678  -8.760  21.127  0.00  0.00    +0.013 A 
ATOM     16  C   UNL     1     -31.423  -7.620  21.446  0.00  0.00    +0.008 A 
ATOM     17  C   UNL     1     -32.255  -7.192  20.421  0.00  0.00    +0.045 A 
ATOM     18  S   UNL     1     -32.064  -8.234  19.116  0.00  0.00    -0.100 S 
ENDBRANCH  13  14
BRANCH  13  19
ATOM     19  C   UNL     1     -30.117 -11.598  20.178  0.00  0.00    +0.148 C 
BRANCH  19  20
ATOM     20  C   UNL     1     -31.194 -12.625  20.002  0.00  0.00    +0.307 C 
ATOM     21  O   UNL     1     -32.400 -12.269  19.931  0.00  0.00    -0.251 OA
BRANCH  20  22
ATOM     22  O   UNL     1     -30.856 -13.968  19.872  0.00  0.00    -0.481 OA
ATOM     23  H   UNL     1     -30.175 -14.395  20.490  0.00  0.00    +0.295 HD
ENDBRANCH  20  22
ENDBRANCH  19  20
ENDBRANCH  13  19
ENDBRANCH   3  13
TORSDOF 7
ENDMDL
