MODEL 1
REMARK VINA RESULT:    -4.434      0.000      0.000
REMARK INTER + INTRA:          -8.042
REMARK INTER:                  -6.249
REMARK INTRA:                  -1.794
REMARK UNBOUND:                -1.794
REMARK  Name = 
REMARK  8 active torsions:
REMARK  status: ('A' for Active; 'I' for Inactive)
REMARK    1  A    between atoms: C_1  and  S_2
REMARK    2  A    between atoms: S_2  and  C_5
REMARK    3  A    between atoms: C_5  and  C_6
REMARK    4  A    between atoms: C_6  and  C_7
REMARK    5  A    between atoms: C_6  and  C_17
REMARK    6  A    between atoms: N_9  and  C_10
REMARK    7  A    between atoms: C_10  and  C_11
REMARK    8  A    between atoms: C_11  and  C_12
REMARK                            x       y       z     vdW  Elec       q    Type
REMARK                         _______ _______ _______ _____ _____    ______ ____
ROOT
ATOM      1  C   UNL     1     -29.938 -13.339  17.744  0.00  0.00    +0.126 C 
ENDROOT
BRANCH   1   2
ATOM      2  C   UNL     1     -30.744 -12.094  17.429  0.00  0.00    -0.034 A 
ATOM      3  C   UNL     1     -32.141 -12.067  17.614  0.00  0.00    +0.004 A 
ATOM      4  C   UNL     1     -32.872 -10.914  17.314  0.00  0.00    +0.000 A 
ATOM      5  C   UNL     1     -32.221  -9.777  16.830  0.00  0.00    +0.000 A 
ATOM      6  C   UNL     1     -30.836  -9.791  16.645  0.00  0.00    +0.000 A 
ATOM      7  C   UNL     1     -30.100 -10.942  16.942  0.00  0.00    +0.004 A 
ENDBRANCH   1   2
BRANCH   1   8
ATOM      8  C   UNL     1     -29.501 -13.999  16.459  0.00  0.00    +0.222 C 
ATOM      9  O   UNL     1     -28.272 -14.100  16.183  0.00  0.00    -0.275 OA
ATOM     10  N   UNL     1     -30.485 -14.451  15.520  0.00  0.00    -0.314 N 
ATOM     11  H   UNL     1     -31.496 -14.339  15.761  0.00  0.00    +0.149 HD
BRANCH  10  12
ATOM     12  C   UNL     1     -30.101 -15.038  14.237  0.00  0.00    +0.109 C 
BRANCH  12  13
ATOM     13  C   UNL     1     -30.053 -13.971  13.141  0.00  0.00    +0.054 C 
BRANCH  13  14
ATOM     14  C   UNL     1     -31.413 -13.379  12.919  0.00  0.00    -0.039 A 
ATOM     15  C   UNL     1     -31.950 -12.364  13.729  0.00  0.00    +0.011 A 
ATOM     16  C   UNL     1     -33.243 -12.001  13.377  0.00  0.00    +0.045 A 
ATOM     17  S   UNL     1     -33.715 -12.951  12.074  0.00  0.00    -0.105 S 
ATOM     18  C   UNL     1     -32.290 -13.830  11.938  0.00  0.00    +0.048 A 
ENDBRANCH  13  14
ENDBRANCH  12  13
ENDBRANCH  10  12
ENDBRANCH   1   8
BRANCH   1  19
ATOM     19  C   UNL     1     -28.739 -13.039  18.669  0.00  0.00    +0.183 C 
BRANCH  19  21
ATOM     20  C   UNL     1     -28.056 -13.865  21.372  0.00  0.00    +0.194 C 
ATOM     21  S   UNL     1     -29.218 -12.942  20.392  0.00  0.00    -0.033 S 
ATOM     22  O   UNL     1     -30.592 -13.521  20.578  0.00  0.00    -0.175 OA
ATOM     23  O   UNL     1     -29.214 -11.509  20.847  0.00  0.00    -0.175 OA
ENDBRANCH  19  21
ENDBRANCH   1  19
TORSDOF 7
ENDMDL
MODEL 2
REMARK VINA RESULT:    -4.160      2.736      6.559
REMARK INTER + INTRA:          -7.656
REMARK INTER:                  -6.246
REMARK INTRA:                  -1.410
REMARK UNBOUND:                -1.794
REMARK  Name = 
REMARK  8 active torsions:
REMARK  status: ('A' for Active; 'I' for Inactive)
REMARK    1  A    between atoms: C_1  and  S_2
REMARK    2  A    between atoms: S_2  and  C_5
REMARK    3  A    between atoms: C_5  and  C_6
REMARK    4  A    between atoms: C_6  and  C_7
REMARK    5  A    between atoms: C_6  and  C_17
REMARK    6  A    between atoms: N_9  and  C_10
REMARK    7  A    between atoms: C_10  and  C_11
REMARK    8  A    between atoms: C_11  and  C_12
REMARK                            x       y       z     vdW  Elec       q    Type
REMARK                         _______ _______ _______ _____ _____    ______ ____
ROOT
ATOM      1  C   UNL     1     -32.055 -12.709  15.427  0.00  0.00    +0.126 C 
ENDROOT
BRANCH   1   2
ATOM      2  C   UNL     1     -30.957 -13.501  14.743  0.00  0.00    -0.034 A 
ATOM      3  C   UNL     1     -30.950 -13.674  13.345  0.00  0.00    +0.004 A 
ATOM      4  C   UNL     1     -29.934 -14.412  12.729  0.00  0.00    +0.000 A 
ATOM      5  C   UNL     1     -28.917 -14.981  13.497  0.00  0.00    +0.000 A 
ATOM      6  C   UNL     1     -28.913 -14.815  14.884  0.00  0.00    +0.000 A 
ATOM      7  C   UNL     1     -29.926 -14.080  15.506  0.00  0.00    +0.004 A 
ENDBRANCH   1   2
BRANCH   1   8
ATOM      8  C   UNL     1     -31.498 -12.024  16.651  0.00  0.00    +0.222 C 
ATOM      9  O   UNL     1     -31.774 -12.459  17.804  0.00  0.00    -0.275 OA
ATOM     10  N   UNL     1     -30.707 -10.836  16.505  0.00  0.00    -0.314 N 
ATOM     11  H   UNL     1     -30.506 -10.483  15.541  0.00  0.00    +0.149 HD
BRANCH  10  12
ATOM     12  C   UNL     1     -30.202 -10.109  17.668  0.00  0.00    +0.109 C 
BRANCH  12  13
ATOM     13  C   UNL     1     -28.753 -10.500  17.970  0.00  0.00    +0.054 C 
BRANCH  13  14
ATOM     14  C   UNL     1     -28.697 -11.508  19.080  0.00  0.00    -0.039 A 
ATOM     15  C   UNL     1     -29.283 -11.298  20.338  0.00  0.00    +0.011 A 
ATOM     16  C   UNL     1     -29.066 -12.338  21.231  0.00  0.00    +0.045 A 
ATOM     17  S   UNL     1     -28.136 -13.504  20.457  0.00  0.00    -0.105 S 
ATOM     18  C   UNL     1     -28.001 -12.708  18.984  0.00  0.00    +0.048 A 
ENDBRANCH  13  14
ENDBRANCH  12  13
ENDBRANCH  10  12
ENDBRANCH   1   8
BRANCH   1  19
ATOM     19  C   UNL     1     -32.732 -11.706  14.469  0.00  0.00    +0.183 C 
BRANCH  19  21
ATOM     20  C   UNL     1     -35.060 -10.027  14.002  0.00  0.00    +0.194 C 
ATOM     21  S   UNL     1     -34.076 -10.820  15.254  0.00  0.00    -0.033 S 
ATOM     22  O   UNL     1     -33.530  -9.776  16.187  0.00  0.00    -0.175 OA
ATOM     23  O   UNL     1     -34.942 -11.776  16.025  0.00  0.00    -0.175 OA
ENDBRANCH  19  21
ENDBRANCH   1  19
TORSDOF 7
ENDMDL
MODEL 3
REMARK VINA RESULT:    -4.151      2.377      4.198
REMARK INTER + INTRA:          -7.644
REMARK INTER:                  -5.837
REMARK INTRA:                  -1.807
REMARK UNBOUND:                -1.794
REMARK  Name = 
REMARK  8 active torsions:
REMARK  status: ('A' for Active; 'I' for Inactive)
REMARK    1  A    between atoms: C_1  and  S_2
REMARK    2  A    between atoms: S_2  and  C_5
REMARK    3  A    between atoms: C_5  and  C_6
REMARK    4  A    between atoms: C_6  and  C_7
REMARK    5  A    between atoms: C_6  and  C_17
REMARK    6  A    between atoms: N_9  and  C_10
REMARK    7  A    between atoms: C_10  and  C_11
REMARK    8  A    between atoms: C_11  and  C_12
REMARK                            x       y       z     vdW  Elec       q    Type
REMARK                         _______ _______ _______ _____ _____    ______ ____
ROOT
ATOM      1  C   UNL     1     -28.836 -12.971  18.570  0.00  0.00    +0.126 C 
ENDROOT
BRANCH   1   2
ATOM      2  C   UNL     1     -29.484 -13.569  17.336  0.00  0.00    -0.034 A 
ATOM      3  C   UNL     1     -30.862 -13.864  17.310  0.00  0.00    +0.004 A 
ATOM      4  C   UNL     1     -31.444 -14.420  16.167  0.00  0.00    +0.000 A 
ATOM      5  C   UNL     1     -30.662 -14.686  15.041  0.00  0.00    +0.000 A 
ATOM      6  C   UNL     1     -29.296 -14.397  15.055  0.00  0.00    +0.000 A 
ATOM      7  C   UNL     1     -28.707 -13.841  16.195  0.00  0.00    +0.004 A 
ENDBRANCH   1   2
BRANCH   1   8
ATOM      8  C   UNL     1     -28.978 -11.469  18.539  0.00  0.00    +0.222 C 
ATOM      9  O   UNL     1     -28.037 -10.750  18.101  0.00  0.00    -0.275 OA
ATOM     10  N   UNL     1     -30.160 -10.854  19.070  0.00  0.00    -0.314 N 
ATOM     11  H   UNL     1     -30.919 -11.468  19.446  0.00  0.00    +0.149 HD
BRANCH  10  12
ATOM     12  C   UNL     1     -30.309  -9.401  19.115  0.00  0.00    +0.109 C 
BRANCH  12  13
ATOM     13  C   UNL     1     -31.678  -8.974  18.581  0.00  0.00    +0.054 C 
BRANCH  13  14
ATOM     14  C   UNL     1     -32.061  -9.800  17.388  0.00  0.00    -0.039 A 
ATOM     15  C   UNL     1     -31.298  -9.848  16.211  0.00  0.00    +0.011 A 
ATOM     16  C   UNL     1     -31.863 -10.634  15.216  0.00  0.00    +0.045 A 
ATOM     17  S   UNL     1     -33.313 -11.251  15.800  0.00  0.00    -0.105 S 
ATOM     18  C   UNL     1     -33.240 -10.535  17.318  0.00  0.00    +0.048 A 
ENDBRANCH  13  14
ENDBRANCH  12  13
ENDBRANCH  10  12
ENDBRANCH   1   8
BRANCH   1  19
ATOM     19  C   UNL     1     -29.402 -13.571  19.875  0.00  0.00    +0.183 C 
BRANCH  19  21
ATOM     20  C   UNL     1     -26.560 -13.797  20.448  0.00  0.00    +0.194 C 
ATOM     21  S   UNL     1     -28.175 -13.644  21.177  0.00  0.00    -0.033 S 
ATOM     22  O   UNL     1     -28.432 -14.831  22.062  0.00  0.00    -0.175 OA
ATOM     23  O   UNL     1     -28.223 -12.387  22.001  0.00  0.00    -0.175 OA
ENDBRANCH  19  21
ENDBRANCH   1  19
TORSDOF 7
ENDMDL
MODEL 4
REMARK VINA RESULT:    -4.135      2.571      6.712
REMARK INTER + INTRA:          -7.621
REMARK INTER:                  -6.612
REMARK INTRA:                  -1.008
REMARK UNBOUND:                -1.794
REMARK  Name = 
REMARK  8 active torsions:
REMARK  status: ('A' for Active; 'I' for Inactive)
REMARK    1  A    between atoms: C_1  and  S_2
REMARK    2  A    between atoms: S_2  and  C_5
REMARK    3  A    between atoms: C_5  and  C_6
REMARK    4  A    between atoms: C_6  and  C_7
REMARK    5  A    between atoms: C_6  and  C_17
REMARK    6  A    between atoms: N_9  and  C_10
REMARK    7  A    between atoms: C_10  and  C_11
REMARK    8  A    between atoms: C_11  and  C_12
REMARK                            x       y       z     vdW  Elec       q    Type
REMARK                         _______ _______ _______ _____ _____    ______ ____
ROOT
ATOM      1  C   UNL     1     -31.659 -12.893  16.311  0.00  0.00    +0.126 C 
ENDROOT
BRANCH   1   2
ATOM      2  C   UNL     1     -30.846 -13.595  15.241  0.00  0.00    -0.034 A 
ATOM      3  C   UNL     1     -29.757 -14.423  15.582  0.00  0.00    +0.004 A 
ATOM      4  C   UNL     1     -29.014 -15.060  14.584  0.00  0.00    +0.000 A 
ATOM      5  C   UNL     1     -29.346 -14.880  13.240  0.00  0.00    +0.000 A 
ATOM      6  C   UNL     1     -30.423 -14.063  12.890  0.00  0.00    +0.000 A 
ATOM      7  C   UNL     1     -31.170 -13.423  13.882  0.00  0.00    +0.004 A 
ENDBRANCH   1   2
BRANCH   1   8
ATOM      8  C   UNL     1     -30.833 -12.754  17.566  0.00  0.00    +0.222 C 
ATOM      9  O   UNL     1     -31.065 -13.491  18.565  0.00  0.00    -0.275 OA
ATOM     10  N   UNL     1     -29.825 -11.737  17.646  0.00  0.00    -0.314 N 
ATOM     11  H   UNL     1     -29.662 -11.126  16.813  0.00  0.00    +0.149 HD
BRANCH  10  12
ATOM     12  C   UNL     1     -29.046 -11.530  18.865  0.00  0.00    +0.109 C 
BRANCH  12  13
ATOM     13  C   UNL     1     -27.666 -12.181  18.750  0.00  0.00    +0.054 C 
BRANCH  13  14
ATOM     14  C   UNL     1     -27.377 -13.024  19.957  0.00  0.00    -0.039 A 
ATOM     15  C   UNL     1     -26.118 -13.590  20.215  0.00  0.00    +0.011 A 
ATOM     16  C   UNL     1     -26.087 -14.375  21.359  0.00  0.00    +0.045 A 
ATOM     17  S   UNL     1     -27.626 -14.373  22.034  0.00  0.00    -0.105 S 
ATOM     18  C   UNL     1     -28.347 -13.378  20.889  0.00  0.00    +0.048 A 
ENDBRANCH  13  14
ENDBRANCH  12  13
ENDBRANCH  10  12
ENDBRANCH   1   8
BRANCH   1  19
ATOM     19  C   UNL     1     -32.203 -11.531  15.831  0.00  0.00    +0.183 C 
BRANCH  19  21
ATOM     20  C   UNL     1     -34.285  -9.512  16.038  0.00  0.00    +0.194 C 
ATOM     21  S   UNL     1     -33.792 -11.140  16.557  0.00  0.00    -0.033 S 
ATOM     22  O   UNL     1     -33.696 -11.172  18.057  0.00  0.00    -0.175 OA
ATOM     23  O   UNL     1     -34.825 -12.132  16.101  0.00  0.00    -0.175 OA
ENDBRANCH  19  21
ENDBRANCH   1  19
TORSDOF 7
ENDMDL
MODEL 5
REMARK VINA RESULT:    -4.004      3.181      4.709
REMARK INTER + INTRA:          -7.436
REMARK INTER:                  -5.564
REMARK INTRA:                  -1.872
REMARK UNBOUND:                -1.794
REMARK  Name = 
REMARK  8 active torsions:
REMARK  status: ('A' for Active; 'I' for Inactive)
REMARK    1  A    between atoms: C_1  and  S_2
REMARK    2  A    between atoms: S_2  and  C_5
REMARK    3  A    between atoms: C_5  and  C_6
REMARK    4  A    between atoms: C_6  and  C_7
REMARK    5  A    between atoms: C_6  and  C_17
REMARK    6  A    between atoms: N_9  and  C_10
REMARK    7  A    between atoms: C_10  and  C_11
REMARK    8  A    between atoms: C_11  and  C_12
REMARK                            x       y       z     vdW  Elec       q    Type
REMARK                         _______ _______ _______ _____ _____    ______ ____
ROOT
ATOM      1  C   UNL     1     -30.415  -9.648  18.308  0.00  0.00    +0.126 C 
ENDROOT
BRANCH   1   2
ATOM      2  C   UNL     1     -29.724 -10.886  18.846  0.00  0.00    -0.034 A 
ATOM      3  C   UNL     1     -28.436 -11.248  18.404  0.00  0.00    +0.004 A 
ATOM      4  C   UNL     1     -27.813 -12.395  18.906  0.00  0.00    +0.000 A 
ATOM      5  C   UNL     1     -28.463 -13.189  19.852  0.00  0.00    +0.000 A 
ATOM      6  C   UNL     1     -29.740 -12.839  20.299  0.00  0.00    +0.000 A 
ATOM      7  C   UNL     1     -30.369 -11.695  19.801  0.00  0.00    +0.004 A 
ENDBRANCH   1   2
BRANCH   1   8
ATOM      8  C   UNL     1     -30.686  -9.820  16.834  0.00  0.00    +0.222 C 
ATOM      9  O   UNL     1     -30.014  -9.170  15.984  0.00  0.00    -0.275 OA
ATOM     10  N   UNL     1     -31.753 -10.674  16.399  0.00  0.00    -0.314 N 
ATOM     11  H   UNL     1     -32.309 -11.187  17.121  0.00  0.00    +0.149 HD
BRANCH  10  12
ATOM     12  C   UNL     1     -32.086 -10.817  14.983  0.00  0.00    +0.109 C 
BRANCH  12  13
ATOM     13  C   UNL     1     -32.451 -12.266  14.652  0.00  0.00    +0.054 C 
BRANCH  13  14
ATOM     14  C   UNL     1     -31.442 -13.212  15.235  0.00  0.00    -0.039 A 
ATOM     15  C   UNL     1     -31.573 -13.782  16.512  0.00  0.00    +0.011 A 
ATOM     16  C   UNL     1     -30.500 -14.586  16.871  0.00  0.00    +0.045 A 
ATOM     17  S   UNL     1     -29.391 -14.571  15.609  0.00  0.00    -0.105 S 
ATOM     18  C   UNL     1     -30.256 -13.551  14.592  0.00  0.00    +0.048 A 
ENDBRANCH  13  14
ENDBRANCH  12  13
ENDBRANCH  10  12
ENDBRANCH   1   8
BRANCH   1  19
ATOM     19  C   UNL     1     -31.704  -9.314  19.090  0.00  0.00    +0.183 C 
BRANCH  19  21
ATOM     20  C   UNL     1     -32.322  -8.105  21.661  0.00  0.00    +0.194 C 
ATOM     21  S   UNL     1     -31.526  -7.841  20.093  0.00  0.00    -0.033 S 
ATOM     22  O   UNL     1     -32.168  -6.668  19.404  0.00  0.00    -0.175 OA
ATOM     23  O   UNL     1     -30.071  -7.548  20.325  0.00  0.00    -0.175 OA
ENDBRANCH  19  21
ENDBRANCH   1  19
TORSDOF 7
ENDMDL
MODEL 6
REMARK VINA RESULT:    -3.945      3.348      5.724
REMARK INTER + INTRA:          -7.353
REMARK INTER:                  -5.343
REMARK INTRA:                  -2.009
REMARK UNBOUND:                -1.794
REMARK  Name = 
REMARK  8 active torsions:
REMARK  status: ('A' for Active; 'I' for Inactive)
REMARK    1  A    between atoms: C_1  and  S_2
REMARK    2  A    between atoms: S_2  and  C_5
REMARK    3  A    between atoms: C_5  and  C_6
REMARK    4  A    between atoms: C_6  and  C_7
REMARK    5  A    between atoms: C_6  and  C_17
REMARK    6  A    between atoms: N_9  and  C_10
REMARK    7  A    between atoms: C_10  and  C_11
REMARK    8  A    between atoms: C_11  and  C_12
REMARK                            x       y       z     vdW  Elec       q    Type
REMARK                         _______ _______ _______ _____ _____    ______ ____
ROOT
ATOM      1  C   UNL     1     -29.520 -10.470  18.978  0.00  0.00    +0.126 C 
ENDROOT
BRANCH   1   2
ATOM      2  C   UNL     1     -30.355 -10.785  17.753  0.00  0.00    -0.034 A 
ATOM      3  C   UNL     1     -30.491  -9.850  16.707  0.00  0.00    +0.004 A 
ATOM      4  C   UNL     1     -31.269 -10.153  15.585  0.00  0.00    +0.000 A 
ATOM      5  C   UNL     1     -31.916 -11.388  15.493  0.00  0.00    +0.000 A 
ATOM      6  C   UNL     1     -31.787 -12.323  16.522  0.00  0.00    +0.000 A 
ATOM      7  C   UNL     1     -31.011 -12.026  17.647  0.00  0.00    +0.004 A 
ENDBRANCH   1   2
BRANCH   1   8
ATOM      8  C   UNL     1     -30.293  -9.557  19.898  0.00  0.00    +0.222 C 
ATOM      9  O   UNL     1     -30.065  -8.315  19.900  0.00  0.00    -0.275 OA
ATOM     10  N   UNL     1     -31.243 -10.112  20.818  0.00  0.00    -0.314 N 
ATOM     11  H   UNL     1     -31.402 -11.145  20.812  0.00  0.00    +0.149 HD
BRANCH  10  12
ATOM     12  C   UNL     1     -31.966  -9.268  21.767  0.00  0.00    +0.109 C 
BRANCH  12  13
ATOM     13  C   UNL     1     -33.478  -9.373  21.551  0.00  0.00    +0.054 C 
BRANCH  13  14
ATOM     14  C   UNL     1     -33.832  -9.064  20.126  0.00  0.00    -0.039 A 
ATOM     15  C   UNL     1     -34.095 -10.055  19.168  0.00  0.00    +0.011 A 
ATOM     16  C   UNL     1     -34.350  -9.547  17.901  0.00  0.00    +0.045 A 
ATOM     17  S   UNL     1     -34.232  -7.872  17.978  0.00  0.00    -0.105 S 
ATOM     18  C   UNL     1     -33.860  -7.771  19.613  0.00  0.00    +0.048 A 
ENDBRANCH  13  14
ENDBRANCH  12  13
ENDBRANCH  10  12
ENDBRANCH   1   8
BRANCH   1  19
ATOM     19  C   UNL     1     -29.047 -11.747  19.706  0.00  0.00    +0.183 C 
BRANCH  19  21
ATOM     20  C   UNL     1     -26.719 -13.403  20.247  0.00  0.00    +0.194 C 
ATOM     21  S   UNL     1     -27.522 -12.392  19.024  0.00  0.00    -0.033 S 
ATOM     22  O   UNL     1     -26.609 -11.261  18.641  0.00  0.00    -0.175 OA
ATOM     23  O   UNL     1     -27.815 -13.230  17.811  0.00  0.00    -0.175 OA
ENDBRANCH  19  21
ENDBRANCH   1  19
TORSDOF 7
ENDMDL
MODEL 7
REMARK VINA RESULT:    -3.891      2.479      5.863
REMARK INTER + INTRA:          -7.277
REMARK INTER:                  -5.832
REMARK INTRA:                  -1.446
REMARK UNBOUND:                -1.794
REMARK  Name = 
REMARK  8 active torsions:
REMARK  status: ('A' for Active; 'I' for Inactive)
REMARK    1  A    between atoms: C_1  and  S_2
REMARK    2  A    between atoms: S_2  and  C_5
REMARK    3  A    between atoms: C_5  and  C_6
REMARK    4  A    between atoms: C_6  and  C_7
REMARK    5  A    between atoms: C_6  and  C_17
REMARK    6  A    between atoms: N_9  and  C_10
REMARK    7  A    between atoms: C_10  and  C_11
REMARK    8  A    between atoms: C_11  and  C_12
REMARK                            x       y       z     vdW  Elec       q    Type
REMARK                         _______ _______ _______ _____ _____    ______ ____
ROOT
ATOM      1  C   UNL     1     -31.322 -11.996  15.362  0.00  0.00    +0.126 C 
ENDROOT
BRANCH   1   2
ATOM      2  C   UNL     1     -32.264 -12.059  14.175  0.00  0.00    -0.034 A 
ATOM      3  C   UNL     1     -31.934 -12.806  13.026  0.00  0.00    +0.004 A 
ATOM      4  C   UNL     1     -32.810 -12.852  11.938  0.00  0.00    +0.000 A 
ATOM      5  C   UNL     1     -34.021 -12.157  11.982  0.00  0.00    +0.000 A 
ATOM      6  C   UNL     1     -34.359 -11.415  13.116  0.00  0.00    +0.000 A 
ATOM      7  C   UNL     1     -33.487 -11.365  14.208  0.00  0.00    +0.004 A 
ENDBRANCH   1   2
BRANCH   1   8
ATOM      8  C   UNL     1     -31.411 -10.635  16.007  0.00  0.00    +0.222 C 
ATOM      9  O   UNL     1     -30.764  -9.661  15.529  0.00  0.00    -0.275 OA
ATOM     10  N   UNL     1     -32.181 -10.463  17.205  0.00  0.00    -0.314 N 
ATOM     11  H   UNL     1     -32.693 -11.287  17.594  0.00  0.00    +0.149 HD
BRANCH  10  12
ATOM     12  C   UNL     1     -32.241  -9.175  17.894  0.00  0.00    +0.109 C 
BRANCH  12  13
ATOM     13  C   UNL     1     -32.155  -9.362  19.411  0.00  0.00    +0.054 C 
BRANCH  13  14
ATOM     14  C   UNL     1     -31.200 -10.467  19.754  0.00  0.00    -0.039 A 
ATOM     15  C   UNL     1     -31.618 -11.729  20.209  0.00  0.00    +0.011 A 
ATOM     16  C   UNL     1     -30.567 -12.582  20.517  0.00  0.00    +0.045 A 
ATOM     17  S   UNL     1     -29.129 -11.760  20.235  0.00  0.00    -0.105 S 
ATOM     18  C   UNL     1     -29.818 -10.318  19.718  0.00  0.00    +0.048 A 
ENDBRANCH  13  14
ENDBRANCH  12  13
ENDBRANCH  10  12
ENDBRANCH   1   8
BRANCH   1  19
ATOM     19  C   UNL     1     -31.588 -13.127  16.378  0.00  0.00    +0.183 C 
BRANCH  19  21
ATOM     20  C   UNL     1     -29.641 -14.995  15.293  0.00  0.00    +0.194 C 
ATOM     21  S   UNL     1     -30.112 -14.075  16.740  0.00  0.00    -0.033 S 
ATOM     22  O   UNL     1     -30.377 -15.031  17.869  0.00  0.00    -0.175 OA
ATOM     23  O   UNL     1     -28.988 -13.152  17.121  0.00  0.00    -0.175 OA
ENDBRANCH  19  21
ENDBRANCH   1  19
TORSDOF 7
ENDMDL
MODEL 8
REMARK VINA RESULT:    -3.767      2.956      6.505
REMARK INTER + INTRA:          -7.102
REMARK INTER:                  -5.681
REMARK INTRA:                  -1.421
REMARK UNBOUND:                -1.794
REMARK  Name = 
REMARK  8 active torsions:
REMARK  status: ('A' for Active; 'I' for Inactive)
REMARK    1  A    between atoms: C_1  and  S_2
REMARK    2  A    between atoms: S_2  and  C_5
REMARK    3  A    between atoms: C_5  and  C_6
REMARK    4  A    between atoms: C_6  and  C_7
REMARK    5  A    between atoms: C_6  and  C_17
REMARK    6  A    between atoms: N_9  and  C_10
REMARK    7  A    between atoms: C_10  and  C_11
REMARK    8  A    between atoms: C_11  and  C_12
REMARK                            x       y       z     vdW  Elec       q    Type
REMARK                         _______ _______ _______ _____ _____    ______ ____
ROOT
ATOM      1  C   UNL     1     -32.230 -12.840  15.469  0.00  0.00    +0.126 C 
ENDROOT
BRANCH   1   2
ATOM      2  C   UNL     1     -30.973 -13.514  14.954  0.00  0.00    -0.034 A 
ATOM      3  C   UNL     1     -30.830 -13.837  13.590  0.00  0.00    +0.004 A 
ATOM      4  C   UNL     1     -29.668 -14.463  13.130  0.00  0.00    +0.000 A 
ATOM      5  C   UNL     1     -28.638 -14.771  14.021  0.00  0.00    +0.000 A 
ATOM      6  C   UNL     1     -28.768 -14.454  15.376  0.00  0.00    +0.000 A 
ATOM      7  C   UNL     1     -29.928 -13.828  15.842  0.00  0.00    +0.004 A 
ENDBRANCH   1   2
BRANCH   1   8
ATOM      8  C   UNL     1     -32.341 -13.046  16.960  0.00  0.00    +0.222 C 
ATOM      9  O   UNL     1     -32.552 -14.200  17.428  0.00  0.00    -0.275 OA
ATOM     10  N   UNL     1     -32.272 -11.917  17.842  0.00  0.00    -0.314 N 
ATOM     11  H   UNL     1     -32.116 -10.969  17.431  0.00  0.00    +0.149 HD
BRANCH  10  12
ATOM     12  C   UNL     1     -32.437 -12.068  19.287  0.00  0.00    +0.109 C 
BRANCH  12  13
ATOM     13  C   UNL     1     -31.374 -11.270  20.045  0.00  0.00    +0.054 C 
BRANCH  13  14
ATOM     14  C   UNL     1     -29.997 -11.704  19.637  0.00  0.00    -0.039 A 
ATOM     15  C   UNL     1     -29.154 -10.924  18.828  0.00  0.00    +0.011 A 
ATOM     16  C   UNL     1     -27.946 -11.540  18.531  0.00  0.00    +0.045 A 
ATOM     17  S   UNL     1     -27.939 -13.053  19.262  0.00  0.00    -0.105 S 
ATOM     18  C   UNL     1     -29.461 -12.945  19.965  0.00  0.00    +0.048 A 
ENDBRANCH  13  14
ENDBRANCH  12  13
ENDBRANCH  10  12
ENDBRANCH   1   8
BRANCH   1  19
ATOM     19  C   UNL     1     -32.284 -11.344  15.094  0.00  0.00    +0.183 C 
BRANCH  19  21
ATOM     20  C   UNL     1     -34.374 -11.635  13.093  0.00  0.00    +0.194 C 
ATOM     21  S   UNL     1     -33.929 -10.824  14.611  0.00  0.00    -0.033 S 
ATOM     22  O   UNL     1     -33.958  -9.335  14.403  0.00  0.00    -0.175 OA
ATOM     23  O   UNL     1     -34.921 -11.199  15.676  0.00  0.00    -0.175 OA
ENDBRANCH  19  21
ENDBRANCH   1  19
TORSDOF 7
ENDMDL
MODEL 9
REMARK VINA RESULT:    -3.761      2.871      5.828
REMARK INTER + INTRA:          -7.094
REMARK INTER:                  -5.674
REMARK INTRA:                  -1.421
REMARK UNBOUND:                -1.794
REMARK  Name = 
REMARK  8 active torsions:
REMARK  status: ('A' for Active; 'I' for Inactive)
REMARK    1  A    between atoms: C_1  and  S_2
REMARK    2  A    between atoms: S_2  and  C_5
REMARK    3  A    between atoms: C_5  and  C_6
REMARK    4  A    between atoms: C_6  and  C_7
REMARK    5  A    between atoms: C_6  and  C_17
REMARK    6  A    between atoms: N_9  and  C_10
REMARK    7  A    between atoms: C_10  and  C_11
REMARK    8  A    between atoms: C_11  and  C_12
REMARK                            x       y       z     vdW  Elec       q    Type
REMARK                         _______ _______ _______ _____ _____    ______ ____
ROOT
ATOM      1  C   UNL     1     -32.381 -11.760  16.012  0.00  0.00    +0.126 C 
ENDROOT
BRANCH   1   2
ATOM      2  C   UNL     1     -32.749 -12.115  14.584  0.00  0.00    -0.034 A 
ATOM      3  C   UNL     1     -31.850 -12.816  13.755  0.00  0.00    +0.004 A 
ATOM      4  C   UNL     1     -32.202 -13.132  12.440  0.00  0.00    +0.000 A 
ATOM      5  C   UNL     1     -33.450 -12.757  11.938  0.00  0.00    +0.000 A 
ATOM      6  C   UNL     1     -34.350 -12.063  12.751  0.00  0.00    +0.000 A 
ATOM      7  C   UNL     1     -34.004 -11.743  14.067  0.00  0.00    +0.004 A 
ENDBRANCH   1   2
BRANCH   1   8
ATOM      8  C   UNL     1     -31.404 -12.776  16.551  0.00  0.00    +0.222 C 
ATOM      9  O   UNL     1     -31.809 -13.919  16.908  0.00  0.00    -0.275 OA
ATOM     10  N   UNL     1     -30.026 -12.421  16.720  0.00  0.00    -0.314 N 
ATOM     11  H   UNL     1     -29.717 -11.463  16.436  0.00  0.00    +0.149 HD
BRANCH  10  12
ATOM     12  C   UNL     1     -29.062 -13.356  17.297  0.00  0.00    +0.109 C 
BRANCH  12  13
ATOM     13  C   UNL     1     -28.316 -12.718  18.471  0.00  0.00    +0.054 C 
BRANCH  13  14
ATOM     14  C   UNL     1     -29.279 -12.061  19.415  0.00  0.00    -0.039 A 
ATOM     15  C   UNL     1     -30.160 -12.781  20.238  0.00  0.00    +0.011 A 
ATOM     16  C   UNL     1     -30.998 -11.972  20.993  0.00  0.00    +0.045 A 
ATOM     17  S   UNL     1     -30.650 -10.370  20.623  0.00  0.00    -0.105 S 
ATOM     18  C   UNL     1     -29.434 -10.681  19.507  0.00  0.00    +0.048 A 
ENDBRANCH  13  14
ENDBRANCH  12  13
ENDBRANCH  10  12
ENDBRANCH   1   8
BRANCH   1  19
ATOM     19  C   UNL     1     -31.832 -10.322  16.132  0.00  0.00    +0.183 C 
BRANCH  19  21
ATOM     20  C   UNL     1     -33.862 -10.325  18.214  0.00  0.00    +0.194 C 
ATOM     21  S   UNL     1     -32.858  -9.288  17.174  0.00  0.00    -0.033 S 
ATOM     22  O   UNL     1     -33.751  -8.427  16.326  0.00  0.00    -0.175 OA
ATOM     23  O   UNL     1     -31.996  -8.414  18.040  0.00  0.00    -0.175 OA
ENDBRANCH  19  21
ENDBRANCH   1  19
TORSDOF 7
ENDMDL
