MODEL 1
REMARK VINA RESULT:    -3.733      0.000      0.000
REMARK INTER + INTRA:          -6.643
REMARK INTER:                  -5.478
REMARK INTRA:                  -1.165
REMARK UNBOUND:                -1.165
REMARK  Name = 
REMARK  12 active torsions:
REMARK  status: ('A' for Active; 'I' for Inactive)
REMARK    1  A    between atoms: C_1  and  O_2
REMARK    2  A    between atoms: O_2  and  C_3
REMARK    3  A    between atoms: C_3  and  C_4
REMARK    4  A    between atoms: C_4  and  C_5
REMARK    5  A    between atoms: C_4  and  N_6
REMARK    6  A    between atoms: N_6  and  S_7
REMARK    7  A    between atoms: S_7  and  C_10
REMARK    8  A    between atoms: C_13  and  N_16
REMARK    9  A    between atoms: C_17  and  C_19
REMARK   10  A    between atoms: C_19  and  C_20
REMARK   11  A    between atoms: C_23  and  C_24
REMARK   12  A    between atoms: C_25  and  C_26
REMARK                            x       y       z     vdW  Elec       q    Type
REMARK                         _______ _______ _______ _____ _____    ______ ____
ROOT
ATOM      1  C   UNL     1     -30.511  -9.107  20.001  0.00  0.00    +0.105 A 
ATOM      2  C   UNL     1     -29.590 -10.066  20.444  0.00  0.00    +0.030 A 
ATOM      3  C   UNL     1     -29.043 -10.986  19.544  0.00  0.00    +0.025 A 
ATOM      4  C   UNL     1     -29.408 -10.954  18.186  0.00  0.00    +0.034 A 
ATOM      5  C   UNL     1     -30.347 -10.008  17.752  0.00  0.00    +0.025 A 
ATOM      6  C   UNL     1     -30.887  -9.083  18.651  0.00  0.00    +0.030 A 
ENDROOT
BRANCH   4   7
ATOM      7  N   UNL     1     -28.882 -11.910  17.249  0.00  0.00    -0.285 N 
ATOM      8  C   UNL     1     -29.248 -13.296  17.241  0.00  0.00    +0.222 C 
ATOM      9  O   UNL     1     -29.804 -13.816  18.246  0.00  0.00    -0.275 OA
ATOM     10  H   UNL     1     -28.136 -11.591  16.590  0.00  0.00    +0.155 HD
BRANCH   8  11
ATOM     11  C   UNL     1     -28.951 -14.148  16.043  0.00  0.00    +0.131 C 
BRANCH  11  12
ATOM     12  C   UNL     1     -29.987 -13.919  14.975  0.00  0.00    -0.038 A 
ATOM     13  C   UNL     1     -30.116 -14.816  13.908  0.00  0.00    +0.004 A 
ATOM     14  C   UNL     1     -31.090 -14.614  12.931  0.00  0.00    +0.004 A 
ATOM     15  C   UNL     1     -31.959 -13.514  13.002  0.00  0.00    -0.048 A 
ATOM     16  C   UNL     1     -33.009 -13.334  11.938  0.00  0.00    +0.044 C 
ATOM     17  C   UNL     1     -31.856 -12.619  14.094  0.00  0.00    -0.047 A 
ATOM     18  C   UNL     1     -32.780 -11.437  14.225  0.00  0.00    +0.044 C 
ATOM     19  C   UNL     1     -30.861 -12.826  15.065  0.00  0.00    +0.007 A 
ENDBRANCH  11  12
ENDBRANCH   8  11
ENDBRANCH   4   7
BRANCH   1  20
ATOM     20  S   UNL     1     -31.179  -7.921  21.120  0.00  0.00    +0.059 S 
ATOM     21  O   UNL     1     -31.697  -6.731  20.360  0.00  0.00    -0.153 OA
ATOM     22  O   UNL     1     -30.092  -7.453  22.047  0.00  0.00    -0.153 OA
BRANCH  20  23
ATOM     23  N   UNL     1     -32.453  -8.648  22.058  0.00  0.00    -0.185 NA
ATOM     24  H   UNL     1     -32.068  -9.559  22.399  0.00  0.00    +0.148 HD
BRANCH  23  25
ATOM     25  C   UNL     1     -33.661  -8.872  21.237  0.00  0.00    +0.099 C 
ATOM     26  C   UNL     1     -34.848  -8.130  21.863  0.00  0.00    +0.028 C 
BRANCH  25  27
ATOM     27  C   UNL     1     -33.977 -10.375  21.108  0.00  0.00    +0.179 C 
BRANCH  27  29
ATOM     28  C   UNL     1     -32.838 -12.032  19.983  0.00  0.00    +0.194 C 
ATOM     29  O   UNL     1     -32.778 -11.122  21.059  0.00  0.00    -0.381 OA
ENDBRANCH  27  29
ENDBRANCH  25  27
ENDBRANCH  23  25
ENDBRANCH  20  23
ENDBRANCH   1  20
TORSDOF 8
ENDMDL
MODEL 2
REMARK VINA RESULT:    -3.531      3.663      8.537
REMARK INTER + INTRA:          -6.347
REMARK INTER:                  -5.501
REMARK INTRA:                  -0.846
REMARK UNBOUND:                -1.165
REMARK  Name = 
REMARK  12 active torsions:
REMARK  status: ('A' for Active; 'I' for Inactive)
REMARK    1  A    between atoms: C_1  and  O_2
REMARK    2  A    between atoms: O_2  and  C_3
REMARK    3  A    between atoms: C_3  and  C_4
REMARK    4  A    between atoms: C_4  and  C_5
REMARK    5  A    between atoms: C_4  and  N_6
REMARK    6  A    between atoms: N_6  and  S_7
REMARK    7  A    between atoms: S_7  and  C_10
REMARK    8  A    between atoms: C_13  and  N_16
REMARK    9  A    between atoms: C_17  and  C_19
REMARK   10  A    between atoms: C_19  and  C_20
REMARK   11  A    between atoms: C_23  and  C_24
REMARK   12  A    between atoms: C_25  and  C_26
REMARK                            x       y       z     vdW  Elec       q    Type
REMARK                         _______ _______ _______ _____ _____    ______ ____
ROOT
ATOM      1  C   UNL     1     -32.487 -11.727  14.202  0.00  0.00    +0.105 A 
ATOM      2  C   UNL     1     -33.756 -11.221  13.888  0.00  0.00    +0.030 A 
ATOM      3  C   UNL     1     -34.237 -10.076  14.531  0.00  0.00    +0.025 A 
ATOM      4  C   UNL     1     -33.450  -9.419  15.493  0.00  0.00    +0.034 A 
ATOM      5  C   UNL     1     -32.191  -9.941  15.821  0.00  0.00    +0.025 A 
ATOM      6  C   UNL     1     -31.707 -11.081  15.172  0.00  0.00    +0.030 A 
ENDROOT
BRANCH   4   7
ATOM      7  N   UNL     1     -33.936  -8.258  16.189  0.00  0.00    -0.285 N 
ATOM      8  C   UNL     1     -34.594  -8.313  17.462  0.00  0.00    +0.222 C 
ATOM      9  O   UNL     1     -35.062  -9.402  17.891  0.00  0.00    -0.275 OA
ATOM     10  H   UNL     1     -33.874  -7.333  15.704  0.00  0.00    +0.155 HD
BRANCH   8  11
ATOM     11  C   UNL     1     -34.750  -7.070  18.285  0.00  0.00    +0.131 C 
BRANCH  11  12
ATOM     12  C   UNL     1     -33.499  -6.815  19.082  0.00  0.00    -0.038 A 
ATOM     13  C   UNL     1     -33.211  -5.530  19.558  0.00  0.00    +0.004 A 
ATOM     14  C   UNL     1     -32.062  -5.300  20.315  0.00  0.00    +0.004 A 
ATOM     15  C   UNL     1     -31.180  -6.350  20.616  0.00  0.00    -0.048 A 
ATOM     16  C   UNL     1     -29.957  -6.069  21.448  0.00  0.00    +0.044 C 
ATOM     17  C   UNL     1     -31.480  -7.658  20.165  0.00  0.00    -0.047 A 
ATOM     18  C   UNL     1     -30.575  -8.819  20.482  0.00  0.00    +0.044 C 
ATOM     19  C   UNL     1     -32.634  -7.875  19.391  0.00  0.00    +0.007 A 
ENDBRANCH  11  12
ENDBRANCH   8  11
ENDBRANCH   4   7
BRANCH   1  20
ATOM     20  S   UNL     1     -31.858 -13.149  13.373  0.00  0.00    +0.059 S 
ATOM     21  O   UNL     1     -30.740 -12.753  12.449  0.00  0.00    -0.153 OA
ATOM     22  O   UNL     1     -32.956 -13.765  12.551  0.00  0.00    -0.153 OA
BRANCH  20  23
ATOM     23  N   UNL     1     -31.300 -14.313  14.542  0.00  0.00    -0.185 NA
ATOM     24  H   UNL     1     -31.933 -14.210  15.368  0.00  0.00    +0.148 HD
BRANCH  23  25
ATOM     25  C   UNL     1     -29.898 -14.055  14.928  0.00  0.00    +0.099 C 
ATOM     26  C   UNL     1     -28.980 -15.062  14.224  0.00  0.00    +0.028 C 
BRANCH  25  27
ATOM     27  C   UNL     1     -29.715 -14.141  16.455  0.00  0.00    +0.179 C 
BRANCH  27  29
ATOM     28  C   UNL     1     -28.512 -12.866  17.951  0.00  0.00    +0.194 C 
ATOM     29  O   UNL     1     -28.422 -13.699  16.817  0.00  0.00    -0.381 OA
ENDBRANCH  27  29
ENDBRANCH  25  27
ENDBRANCH  23  25
ENDBRANCH  20  23
ENDBRANCH   1  20
TORSDOF 8
ENDMDL
MODEL 3
REMARK VINA RESULT:    -3.128      3.854      6.311
REMARK INTER + INTRA:          -5.755
REMARK INTER:                  -4.386
REMARK INTRA:                  -1.369
REMARK UNBOUND:                -1.165
REMARK  Name = 
REMARK  12 active torsions:
REMARK  status: ('A' for Active; 'I' for Inactive)
REMARK    1  A    between atoms: C_1  and  O_2
REMARK    2  A    between atoms: O_2  and  C_3
REMARK    3  A    between atoms: C_3  and  C_4
REMARK    4  A    between atoms: C_4  and  C_5
REMARK    5  A    between atoms: C_4  and  N_6
REMARK    6  A    between atoms: N_6  and  S_7
REMARK    7  A    between atoms: S_7  and  C_10
REMARK    8  A    between atoms: C_13  and  N_16
REMARK    9  A    between atoms: C_17  and  C_19
REMARK   10  A    between atoms: C_19  and  C_20
REMARK   11  A    between atoms: C_23  and  C_24
REMARK   12  A    between atoms: C_25  and  C_26
REMARK                            x       y       z     vdW  Elec       q    Type
REMARK                         _______ _______ _______ _____ _____    ______ ____
ROOT
ATOM      1  C   UNL     1     -29.032 -11.776  17.606  0.00  0.00    +0.105 A 
ATOM      2  C   UNL     1     -29.477 -12.684  16.636  0.00  0.00    +0.030 A 
ATOM      3  C   UNL     1     -30.610 -12.396  15.869  0.00  0.00    +0.025 A 
ATOM      4  C   UNL     1     -31.310 -11.191  16.060  0.00  0.00    +0.034 A 
ATOM      5  C   UNL     1     -30.875 -10.297  17.048  0.00  0.00    +0.025 A 
ATOM      6  C   UNL     1     -29.736 -10.581  17.809  0.00  0.00    +0.030 A 
ENDROOT
BRANCH   4   7
ATOM      7  N   UNL     1     -32.495 -10.888  15.304  0.00  0.00    -0.285 N 
ATOM      8  C   UNL     1     -33.816 -11.266  15.715  0.00  0.00    +0.222 C 
ATOM      9  O   UNL     1     -33.981 -12.156  16.593  0.00  0.00    -0.275 OA
ATOM     10  H   UNL     1     -32.379 -10.435  14.369  0.00  0.00    +0.155 HD
BRANCH   8  11
ATOM     11  C   UNL     1     -35.015 -10.623  15.085  0.00  0.00    +0.131 C 
BRANCH  11  12
ATOM     12  C   UNL     1     -35.049  -9.155  15.415  0.00  0.00    -0.038 A 
ATOM     13  C   UNL     1     -35.025  -8.726  16.748  0.00  0.00    +0.004 A 
ATOM     14  C   UNL     1     -35.035  -7.365  17.051  0.00  0.00    +0.004 A 
ATOM     15  C   UNL     1     -35.062  -6.403  16.028  0.00  0.00    -0.048 A 
ATOM     16  C   UNL     1     -35.057  -4.942  16.391  0.00  0.00    +0.044 C 
ATOM     17  C   UNL     1     -35.055  -6.828  14.678  0.00  0.00    -0.047 A 
ATOM     18  C   UNL     1     -35.062  -5.833  13.547  0.00  0.00    +0.044 C 
ATOM     19  C   UNL     1     -35.059  -8.203  14.385  0.00  0.00    +0.007 A 
ENDBRANCH  11  12
ENDBRANCH   8  11
ENDBRANCH   4   7
BRANCH   1  20
ATOM     20  S   UNL     1     -27.585 -12.114  18.553  0.00  0.00    +0.059 S 
ATOM     21  O   UNL     1     -26.409 -11.375  17.977  0.00  0.00    -0.153 OA
ATOM     22  O   UNL     1     -27.292 -13.587  18.496  0.00  0.00    -0.153 OA
BRANCH  20  23
ATOM     23  N   UNL     1     -27.845 -11.649  20.212  0.00  0.00    -0.185 NA
ATOM     24  H   UNL     1     -26.908 -11.711  20.672  0.00  0.00    +0.148 HD
BRANCH  23  25
ATOM     25  C   UNL     1     -28.808 -12.552  20.876  0.00  0.00    +0.099 C 
ATOM     26  C   UNL     1     -29.833 -11.720  21.655  0.00  0.00    +0.028 C 
BRANCH  25  27
ATOM     27  C   UNL     1     -28.090 -13.536  21.819  0.00  0.00    +0.179 C 
BRANCH  27  29
ATOM     28  C   UNL     1     -26.077 -14.629  21.575  0.00  0.00    +0.194 C 
ATOM     29  O   UNL     1     -26.689 -13.368  21.724  0.00  0.00    -0.381 OA
ENDBRANCH  27  29
ENDBRANCH  25  27
ENDBRANCH  23  25
ENDBRANCH  20  23
ENDBRANCH   1  20
TORSDOF 8
ENDMDL
MODEL 4
REMARK VINA RESULT:    -2.969      2.651      3.510
REMARK INTER + INTRA:          -5.522
REMARK INTER:                  -5.752
REMARK INTRA:                   0.229
REMARK UNBOUND:                -1.165
REMARK  Name = 
REMARK  12 active torsions:
REMARK  status: ('A' for Active; 'I' for Inactive)
REMARK    1  A    between atoms: C_1  and  O_2
REMARK    2  A    between atoms: O_2  and  C_3
REMARK    3  A    between atoms: C_3  and  C_4
REMARK    4  A    between atoms: C_4  and  C_5
REMARK    5  A    between atoms: C_4  and  N_6
REMARK    6  A    between atoms: N_6  and  S_7
REMARK    7  A    between atoms: S_7  and  C_10
REMARK    8  A    between atoms: C_13  and  N_16
REMARK    9  A    between atoms: C_17  and  C_19
REMARK   10  A    between atoms: C_19  and  C_20
REMARK   11  A    between atoms: C_23  and  C_24
REMARK   12  A    between atoms: C_25  and  C_26
REMARK                            x       y       z     vdW  Elec       q    Type
REMARK                         _______ _______ _______ _____ _____    ______ ____
ROOT
ATOM      1  C   UNL     1     -31.709  -8.117  19.593  0.00  0.00    +0.105 A 
ATOM      2  C   UNL     1     -30.639  -8.692  20.292  0.00  0.00    +0.030 A 
ATOM      3  C   UNL     1     -30.067  -9.887  19.845  0.00  0.00    +0.025 A 
ATOM      4  C   UNL     1     -30.556 -10.520  18.688  0.00  0.00    +0.034 A 
ATOM      5  C   UNL     1     -31.642  -9.953  18.006  0.00  0.00    +0.025 A 
ATOM      6  C   UNL     1     -32.208  -8.754  18.448  0.00  0.00    +0.030 A 
ENDROOT
BRANCH   4   7
ATOM      7  N   UNL     1     -30.003 -11.764  18.227  0.00  0.00    -0.285 N 
ATOM      8  C   UNL     1     -30.373 -13.043  18.762  0.00  0.00    +0.222 C 
ATOM      9  O   UNL     1     -30.961 -13.123  19.875  0.00  0.00    -0.275 OA
ATOM     10  H   UNL     1     -29.236 -11.729  17.518  0.00  0.00    +0.155 HD
BRANCH   8  11
ATOM     11  C   UNL     1     -30.041 -14.299  18.014  0.00  0.00    +0.131 C 
BRANCH  11  12
ATOM     12  C   UNL     1     -30.337 -14.123  16.549  0.00  0.00    -0.038 A 
ATOM     13  C   UNL     1     -31.528 -13.514  16.134  0.00  0.00    +0.004 A 
ATOM     14  C   UNL     1     -31.791 -13.332  14.776  0.00  0.00    +0.004 A 
ATOM     15  C   UNL     1     -30.867 -13.751  13.806  0.00  0.00    -0.048 A 
ATOM     16  C   UNL     1     -31.177 -13.526  12.349  0.00  0.00    +0.044 C 
ATOM     17  C   UNL     1     -29.647 -14.338  14.217  0.00  0.00    -0.047 A 
ATOM     18  C   UNL     1     -28.617 -14.783  13.213  0.00  0.00    +0.044 C 
ATOM     19  C   UNL     1     -29.400 -14.529  15.588  0.00  0.00    +0.007 A 
ENDBRANCH  11  12
ENDBRANCH   8  11
ENDBRANCH   4   7
BRANCH   1  20
ATOM     20  S   UNL     1     -32.414  -6.594  20.129  0.00  0.00    +0.059 S 
ATOM     21  O   UNL     1     -31.400  -5.803  20.907  0.00  0.00    -0.153 OA
ATOM     22  O   UNL     1     -33.582  -6.881  21.030  0.00  0.00    -0.153 OA
BRANCH  20  23
ATOM     23  N   UNL     1     -32.970  -5.685  18.750  0.00  0.00    -0.185 NA
ATOM     24  H   UNL     1     -32.531  -4.740  18.840  0.00  0.00    +0.148 HD
BRANCH  23  25
ATOM     25  C   UNL     1     -34.443  -5.573  18.742  0.00  0.00    +0.099 C 
ATOM     26  C   UNL     1     -35.062  -6.963  18.931  0.00  0.00    +0.028 C 
BRANCH  25  27
ATOM     27  C   UNL     1     -34.946  -4.938  17.431  0.00  0.00    +0.179 C 
BRANCH  27  29
ATOM     28  C   UNL     1     -35.062  -5.243  15.151  0.00  0.00    +0.194 C 
ATOM     29  O   UNL     1     -34.951  -5.899  16.394  0.00  0.00    -0.381 OA
ENDBRANCH  27  29
ENDBRANCH  25  27
ENDBRANCH  23  25
ENDBRANCH  20  23
ENDBRANCH   1  20
TORSDOF 8
ENDMDL
MODEL 5
REMARK VINA RESULT:    -2.965      2.475      4.043
REMARK INTER + INTRA:          -5.517
REMARK INTER:                  -5.339
REMARK INTRA:                  -0.177
REMARK UNBOUND:                -1.165
REMARK  Name = 
REMARK  12 active torsions:
REMARK  status: ('A' for Active; 'I' for Inactive)
REMARK    1  A    between atoms: C_1  and  O_2
REMARK    2  A    between atoms: O_2  and  C_3
REMARK    3  A    between atoms: C_3  and  C_4
REMARK    4  A    between atoms: C_4  and  C_5
REMARK    5  A    between atoms: C_4  and  N_6
REMARK    6  A    between atoms: N_6  and  S_7
REMARK    7  A    between atoms: S_7  and  C_10
REMARK    8  A    between atoms: C_13  and  N_16
REMARK    9  A    between atoms: C_17  and  C_19
REMARK   10  A    between atoms: C_19  and  C_20
REMARK   11  A    between atoms: C_23  and  C_24
REMARK   12  A    between atoms: C_25  and  C_26
REMARK                            x       y       z     vdW  Elec       q    Type
REMARK                         _______ _______ _______ _____ _____    ______ ____
ROOT
ATOM      1  C   UNL     1     -33.568  -9.769  19.717  0.00  0.00    +0.105 A 
ATOM      2  C   UNL     1     -34.013  -9.163  18.534  0.00  0.00    +0.030 A 
ATOM      3  C   UNL     1     -33.730  -9.744  17.295  0.00  0.00    +0.025 A 
ATOM      4  C   UNL     1     -33.000 -10.944  17.223  0.00  0.00    +0.034 A 
ATOM      5  C   UNL     1     -32.537 -11.535  18.407  0.00  0.00    +0.025 A 
ATOM      6  C   UNL     1     -32.829 -10.958  19.647  0.00  0.00    +0.030 A 
ENDROOT
BRANCH   4   7
ATOM      7  N   UNL     1     -32.671 -11.544  15.959  0.00  0.00    -0.285 N 
ATOM      8  C   UNL     1     -33.653 -12.009  15.022  0.00  0.00    +0.222 C 
ATOM      9  O   UNL     1     -34.842 -12.207  15.390  0.00  0.00    -0.275 OA
ATOM     10  H   UNL     1     -31.662 -11.719  15.746  0.00  0.00    +0.155 HD
BRANCH   8  11
ATOM     11  C   UNL     1     -33.267 -12.287  13.600  0.00  0.00    +0.131 C 
BRANCH  11  12
ATOM     12  C   UNL     1     -31.954 -13.021  13.552  0.00  0.00    -0.038 A 
ATOM     13  C   UNL     1     -31.481 -13.551  12.346  0.00  0.00    +0.004 A 
ATOM     14  C   UNL     1     -30.254 -14.213  12.299  0.00  0.00    +0.004 A 
ATOM     15  C   UNL     1     -29.473 -14.354  13.457  0.00  0.00    -0.048 A 
ATOM     16  C   UNL     1     -28.146 -15.062  13.367  0.00  0.00    +0.044 C 
ATOM     17  C   UNL     1     -29.929 -13.795  14.674  0.00  0.00    -0.047 A 
ATOM     18  C   UNL     1     -29.115 -13.903  15.936  0.00  0.00    +0.044 C 
ATOM     19  C   UNL     1     -31.174 -13.142  14.711  0.00  0.00    +0.007 A 
ENDBRANCH  11  12
ENDBRANCH   8  11
ENDBRANCH   4   7
BRANCH   1  20
ATOM     20  S   UNL     1     -33.950  -9.063  21.285  0.00  0.00    +0.059 S 
ATOM     21  O   UNL     1     -32.686  -8.821  22.062  0.00  0.00    -0.153 OA
ATOM     22  O   UNL     1     -34.806 -10.025  22.062  0.00  0.00    -0.153 OA
BRANCH  20  23
ATOM     23  N   UNL     1     -34.826  -7.574  21.063  0.00  0.00    -0.185 NA
ATOM     24  H   UNL     1     -35.107  -7.559  20.057  0.00  0.00    +0.148 HD
BRANCH  23  25
ATOM     25  C   UNL     1     -33.981  -6.404  21.381  0.00  0.00    +0.099 C 
ATOM     26  C   UNL     1     -34.843  -5.314  22.030  0.00  0.00    +0.028 C 
BRANCH  25  27
ATOM     27  C   UNL     1     -33.288  -5.857  20.119  0.00  0.00    +0.179 C 
BRANCH  27  29
ATOM     28  C   UNL     1     -31.145  -5.225  20.679  0.00  0.00    +0.194 C 
ATOM     29  O   UNL     1     -31.928  -6.245  20.103  0.00  0.00    -0.381 OA
ENDBRANCH  27  29
ENDBRANCH  25  27
ENDBRANCH  23  25
ENDBRANCH  20  23
ENDBRANCH   1  20
TORSDOF 8
ENDMDL
MODEL 6
REMARK VINA RESULT:    -2.699      3.198      7.709
REMARK INTER + INTRA:          -5.125
REMARK INTER:                  -4.133
REMARK INTRA:                  -0.993
REMARK UNBOUND:                -1.165
REMARK  Name = 
REMARK  12 active torsions:
REMARK  status: ('A' for Active; 'I' for Inactive)
REMARK    1  A    between atoms: C_1  and  O_2
REMARK    2  A    between atoms: O_2  and  C_3
REMARK    3  A    between atoms: C_3  and  C_4
REMARK    4  A    between atoms: C_4  and  C_5
REMARK    5  A    between atoms: C_4  and  N_6
REMARK    6  A    between atoms: N_6  and  S_7
REMARK    7  A    between atoms: S_7  and  C_10
REMARK    8  A    between atoms: C_13  and  N_16
REMARK    9  A    between atoms: C_17  and  C_19
REMARK   10  A    between atoms: C_19  and  C_20
REMARK   11  A    between atoms: C_23  and  C_24
REMARK   12  A    between atoms: C_25  and  C_26
REMARK                            x       y       z     vdW  Elec       q    Type
REMARK                         _______ _______ _______ _____ _____    ______ ____
ROOT
ATOM      1  C   UNL     1     -30.670 -13.311  15.569  0.00  0.00    +0.105 A 
ATOM      2  C   UNL     1     -30.314 -12.041  16.043  0.00  0.00    +0.030 A 
ATOM      3  C   UNL     1     -30.261 -11.793  17.418  0.00  0.00    +0.025 A 
ATOM      4  C   UNL     1     -30.559 -12.815  18.337  0.00  0.00    +0.034 A 
ATOM      5  C   UNL     1     -30.936 -14.077  17.857  0.00  0.00    +0.025 A 
ATOM      6  C   UNL     1     -30.981 -14.327  16.482  0.00  0.00    +0.030 A 
ENDROOT
BRANCH   4   7
ATOM      7  N   UNL     1     -30.540 -12.574  19.754  0.00  0.00    -0.285 N 
ATOM      8  C   UNL     1     -29.443 -11.952  20.439  0.00  0.00    +0.222 C 
ATOM      9  O   UNL     1     -28.311 -11.872  19.889  0.00  0.00    -0.275 OA
ATOM     10  H   UNL     1     -31.335 -12.941  20.326  0.00  0.00    +0.155 HD
BRANCH   8  11
ATOM     11  C   UNL     1     -29.628 -11.412  21.825  0.00  0.00    +0.131 C 
BRANCH  11  12
ATOM     12  C   UNL     1     -30.779 -10.443  21.855  0.00  0.00    -0.038 A 
ATOM     13  C   UNL     1     -30.551  -9.067  21.736  0.00  0.00    +0.004 A 
ATOM     14  C   UNL     1     -31.621  -8.172  21.742  0.00  0.00    +0.004 A 
ATOM     15  C   UNL     1     -32.941  -8.635  21.863  0.00  0.00    -0.048 A 
ATOM     16  C   UNL     1     -34.073  -7.642  21.852  0.00  0.00    +0.044 C 
ATOM     17  C   UNL     1     -33.182 -10.027  21.953  0.00  0.00    -0.047 A 
ATOM     18  C   UNL     1     -34.582 -10.571  22.062  0.00  0.00    +0.044 C 
ATOM     19  C   UNL     1     -32.094 -10.918  21.959  0.00  0.00    +0.007 A 
ENDBRANCH  11  12
ENDBRANCH   8  11
ENDBRANCH   4   7
BRANCH   1  20
ATOM     20  S   UNL     1     -30.706 -13.644  13.839  0.00  0.00    +0.059 S 
ATOM     21  O   UNL     1     -31.311 -14.997  13.588  0.00  0.00    -0.153 OA
ATOM     22  O   UNL     1     -29.299 -13.649  13.310  0.00  0.00    -0.153 OA
BRANCH  20  23
ATOM     23  N   UNL     1     -31.617 -12.406  13.020  0.00  0.00    -0.185 NA
ATOM     24  H   UNL     1     -31.261 -11.498  13.395  0.00  0.00    +0.148 HD
BRANCH  23  25
ATOM     25  C   UNL     1     -33.064 -12.544  13.284  0.00  0.00    +0.099 C 
ATOM     26  C   UNL     1     -33.804 -12.781  11.962  0.00  0.00    +0.028 C 
BRANCH  25  27
ATOM     27  C   UNL     1     -33.623 -11.295  13.992  0.00  0.00    +0.179 C 
BRANCH  27  29
ATOM     28  C   UNL     1     -34.646 -11.097  16.047  0.00  0.00    +0.194 C 
ATOM     29  O   UNL     1     -33.437 -11.403  15.390  0.00  0.00    -0.381 OA
ENDBRANCH  27  29
ENDBRANCH  25  27
ENDBRANCH  23  25
ENDBRANCH  20  23
ENDBRANCH   1  20
TORSDOF 8
ENDMDL
MODEL 7
REMARK VINA RESULT:    -2.660      2.215      3.052
REMARK INTER + INTRA:          -5.069
REMARK INTER:                  -5.091
REMARK INTRA:                   0.022
REMARK UNBOUND:                -1.165
REMARK  Name = 
REMARK  12 active torsions:
REMARK  status: ('A' for Active; 'I' for Inactive)
REMARK    1  A    between atoms: C_1  and  O_2
REMARK    2  A    between atoms: O_2  and  C_3
REMARK    3  A    between atoms: C_3  and  C_4
REMARK    4  A    between atoms: C_4  and  C_5
REMARK    5  A    between atoms: C_4  and  N_6
REMARK    6  A    between atoms: N_6  and  S_7
REMARK    7  A    between atoms: S_7  and  C_10
REMARK    8  A    between atoms: C_13  and  N_16
REMARK    9  A    between atoms: C_17  and  C_19
REMARK   10  A    between atoms: C_19  and  C_20
REMARK   11  A    between atoms: C_23  and  C_24
REMARK   12  A    between atoms: C_25  and  C_26
REMARK                            x       y       z     vdW  Elec       q    Type
REMARK                         _______ _______ _______ _____ _____    ______ ____
ROOT
ATOM      1  C   UNL     1     -33.320  -8.433  18.447  0.00  0.00    +0.105 A 
ATOM      2  C   UNL     1     -34.242  -9.437  18.124  0.00  0.00    +0.030 A 
ATOM      3  C   UNL     1     -33.801 -10.658  17.604  0.00  0.00    +0.025 A 
ATOM      4  C   UNL     1     -32.428 -10.891  17.407  0.00  0.00    +0.034 A 
ATOM      5  C   UNL     1     -31.511  -9.875  17.710  0.00  0.00    +0.025 A 
ATOM      6  C   UNL     1     -31.952  -8.658  18.238  0.00  0.00    +0.030 A 
ENDROOT
BRANCH   4   7
ATOM      7  N   UNL     1     -31.953 -12.127  16.845  0.00  0.00    -0.285 N 
ATOM      8  C   UNL     1     -31.604 -13.273  17.633  0.00  0.00    +0.222 C 
ATOM      9  O   UNL     1     -31.392 -13.157  18.871  0.00  0.00    -0.275 OA
ATOM     10  H   UNL     1     -31.781 -12.164  15.815  0.00  0.00    +0.155 HD
BRANCH   8  11
ATOM     11  C   UNL     1     -31.465 -14.619  16.987  0.00  0.00    +0.131 C 
BRANCH  11  12
ATOM     12  C   UNL     1     -30.615 -14.515  15.749  0.00  0.00    -0.038 A 
ATOM     13  C   UNL     1     -29.242 -14.780  15.807  0.00  0.00    +0.004 A 
ATOM     14  C   UNL     1     -28.460 -14.703  14.655  0.00  0.00    +0.004 A 
ATOM     15  C   UNL     1     -29.036 -14.366  13.420  0.00  0.00    -0.048 A 
ATOM     16  C   UNL     1     -28.164 -14.307  12.193  0.00  0.00    +0.044 C 
ATOM     17  C   UNL     1     -30.429 -14.128  13.347  0.00  0.00    -0.047 A 
ATOM     18  C   UNL     1     -31.094 -13.784  12.040  0.00  0.00    +0.044 C 
ATOM     19  C   UNL     1     -31.204 -14.194  14.518  0.00  0.00    +0.007 A 
ENDBRANCH  11  12
ENDBRANCH   8  11
ENDBRANCH   4   7
BRANCH   1  20
ATOM     20  S   UNL     1     -33.863  -6.905  19.136  0.00  0.00    +0.059 S 
ATOM     21  O   UNL     1     -34.426  -6.024  18.054  0.00  0.00    -0.153 OA
ATOM     22  O   UNL     1     -32.690  -6.200  19.757  0.00  0.00    -0.153 OA
BRANCH  20  23
ATOM     23  N   UNL     1     -35.062  -7.205  20.363  0.00  0.00    -0.185 NA
ATOM     24  H   UNL     1     -35.784  -6.458  20.241  0.00  0.00    +0.148 HD
BRANCH  23  25
ATOM     25  C   UNL     1     -34.472  -7.137  21.715  0.00  0.00    +0.099 C 
ATOM     26  C   UNL     1     -33.947  -5.719  21.973  0.00  0.00    +0.028 C 
BRANCH  25  27
ATOM     27  C   UNL     1     -33.337  -8.166  21.882  0.00  0.00    +0.179 C 
BRANCH  27  29
ATOM     28  C   UNL     1     -32.823 -10.408  22.015  0.00  0.00    +0.194 C 
ATOM     29  O   UNL     1     -33.843  -9.478  21.729  0.00  0.00    -0.381 OA
ENDBRANCH  27  29
ENDBRANCH  25  27
ENDBRANCH  23  25
ENDBRANCH  20  23
ENDBRANCH   1  20
TORSDOF 8
ENDMDL
