MODEL 1
REMARK VINA RESULT:    -4.470      0.000      0.000
REMARK INTER + INTRA:          -5.454
REMARK INTER:                  -5.254
REMARK INTRA:                  -0.200
REMARK UNBOUND:                -0.200
REMARK  Name = 
REMARK  5 active torsions:
REMARK  status: ('A' for Active; 'I' for Inactive)
REMARK    1  A    between atoms: C_1  and  C_2
REMARK    2  A    between atoms: C_5  and  S_11
REMARK    3  A    between atoms: C_7  and  C_8
REMARK    4  A    between atoms: S_11  and  N_14
REMARK    5  A    between atoms: C_18  and  C_19
REMARK                            x       y       z     vdW  Elec       q    Type
REMARK                         _______ _______ _______ _____ _____    ______ ____
ROOT
ATOM      1  C   UNL     1     -29.010 -14.875  14.000  0.00  0.00    +0.044 C 
ATOM      2  C   UNL     1     -30.180 -14.010  14.394  0.00  0.00    -0.038 A 
ATOM      3  C   UNL     1     -31.076 -13.600  13.393  0.00  0.00    +0.006 A 
ATOM      4  C   UNL     1     -32.149 -12.761  13.697  0.00  0.00    +0.029 A 
ATOM      5  C   UNL     1     -32.350 -12.323  15.008  0.00  0.00    +0.106 A 
ATOM      6  C   UNL     1     -31.472 -12.735  16.018  0.00  0.00    +0.041 A 
ATOM      7  C   UNL     1     -30.400 -13.598  15.733  0.00  0.00    +0.041 A 
ENDROOT
BRANCH   7   8
ATOM      8  C   UNL     1     -29.530 -14.027  16.851  0.00  0.00    +0.242 C 
ATOM      9  N   UNL     1     -30.040 -14.836  17.911  0.00  0.00    -0.325 N 
ATOM     10  O   UNL     1     -28.333 -13.634  16.893  0.00  0.00    -0.270 OA
ATOM     11  H   UNL     1     -31.060 -15.042  17.986  0.00  0.00    +0.145 HD
ATOM     12  H   UNL     1     -29.405 -15.165  18.671  0.00  0.00    +0.145 HD
ENDBRANCH   7   8
BRANCH   5  13
ATOM     13  S   UNL     1     -33.678 -11.233  15.395  0.00  0.00    +0.061 S 
ATOM     14  O   UNL     1     -33.931 -10.302  14.240  0.00  0.00    -0.153 OA
ATOM     15  O   UNL     1     -34.919 -12.046  15.635  0.00  0.00    -0.153 OA
BRANCH  13  16
ATOM     16  N   UNL     1     -33.289 -10.319  16.832  0.00  0.00    -0.172 NA
ATOM     17  C   UNL     1     -33.738  -8.923  16.677  0.00  0.00    +0.137 C 
ATOM     18  C   UNL     1     -33.734  -8.188  18.032  0.00  0.00    +0.177 C 
ATOM     19  O   UNL     1     -32.949  -8.886  18.978  0.00  0.00    -0.374 OA
ATOM     20  C   UNL     1     -33.551 -10.135  19.286  0.00  0.00    +0.131 C 
ATOM     21  C   UNL     1     -32.582 -10.930  20.161  0.00  0.00    +0.039 C 
ATOM     22  C   UNL     1     -33.926 -10.933  18.006  0.00  0.00    +0.140 C 
ENDBRANCH  13  16
ENDBRANCH   5  13
TORSDOF 3
ENDMDL
MODEL 2
REMARK VINA RESULT:    -4.376      2.411      4.903
REMARK INTER + INTRA:          -5.343
REMARK INTER:                  -5.028
REMARK INTRA:                  -0.315
REMARK UNBOUND:                -0.200
REMARK  Name = 
REMARK  5 active torsions:
REMARK  status: ('A' for Active; 'I' for Inactive)
REMARK    1  A    between atoms: C_1  and  C_2
REMARK    2  A    between atoms: C_5  and  S_11
REMARK    3  A    between atoms: C_7  and  C_8
REMARK    4  A    between atoms: S_11  and  N_14
REMARK    5  A    between atoms: C_18  and  C_19
REMARK                            x       y       z     vdW  Elec       q    Type
REMARK                         _______ _______ _______ _____ _____    ______ ____
ROOT
ATOM      1  C   UNL     1     -29.119 -10.709  19.489  0.00  0.00    +0.044 C 
ATOM      2  C   UNL     1     -30.251 -10.866  18.506  0.00  0.00    -0.038 A 
ATOM      3  C   UNL     1     -30.650  -9.744  17.762  0.00  0.00    +0.006 A 
ATOM      4  C   UNL     1     -31.723  -9.824  16.872  0.00  0.00    +0.029 A 
ATOM      5  C   UNL     1     -32.409 -11.029  16.704  0.00  0.00    +0.106 A 
ATOM      6  C   UNL     1     -32.013 -12.159  17.429  0.00  0.00    +0.041 A 
ATOM      7  C   UNL     1     -30.921 -12.101  18.313  0.00  0.00    +0.041 A 
ENDROOT
BRANCH   7   8
ATOM      8  C   UNL     1     -30.529 -13.339  19.022  0.00  0.00    +0.242 C 
ATOM      9  N   UNL     1     -29.745 -14.341  18.373  0.00  0.00    -0.325 N 
ATOM     10  O   UNL     1     -30.929 -13.534  20.201  0.00  0.00    -0.270 OA
ATOM     11  H   UNL     1     -29.536 -14.283  17.354  0.00  0.00    +0.145 HD
ATOM     12  H   UNL     1     -29.442 -15.191  18.899  0.00  0.00    +0.145 HD
ENDBRANCH   7   8
BRANCH   5  13
ATOM     13  S   UNL     1     -33.788 -11.130  15.613  0.00  0.00    +0.061 S 
ATOM     14  O   UNL     1     -35.008 -11.586  16.367  0.00  0.00    -0.153 OA
ATOM     15  O   UNL     1     -34.059  -9.765  15.047  0.00  0.00    -0.153 OA
BRANCH  13  16
ATOM     16  N   UNL     1     -33.431 -12.243  14.315  0.00  0.00    -0.172 NA
ATOM     17  C   UNL     1     -34.408 -12.074  13.224  0.00  0.00    +0.137 C 
ATOM     18  C   UNL     1     -33.925 -12.773  11.938  0.00  0.00    +0.177 C 
ATOM     19  O   UNL     1     -32.902 -13.704  12.227  0.00  0.00    -0.374 OA
ATOM     20  C   UNL     1     -31.741 -13.028  12.687  0.00  0.00    +0.131 C 
ATOM     21  C   UNL     1     -30.734 -14.075  13.162  0.00  0.00    +0.039 C 
ATOM     22  C   UNL     1     -32.066 -12.014  13.819  0.00  0.00    +0.140 C 
ENDBRANCH  13  16
ENDBRANCH   5  13
TORSDOF 3
ENDMDL
MODEL 3
REMARK VINA RESULT:    -4.220      2.362      4.815
REMARK INTER + INTRA:          -5.161
REMARK INTER:                  -4.882
REMARK INTRA:                  -0.279
REMARK UNBOUND:                -0.200
REMARK  Name = 
REMARK  5 active torsions:
REMARK  status: ('A' for Active; 'I' for Inactive)
REMARK    1  A    between atoms: C_1  and  C_2
REMARK    2  A    between atoms: C_5  and  S_11
REMARK    3  A    between atoms: C_7  and  C_8
REMARK    4  A    between atoms: S_11  and  N_14
REMARK    5  A    between atoms: C_18  and  C_19
REMARK                            x       y       z     vdW  Elec       q    Type
REMARK                         _______ _______ _______ _____ _____    ______ ____
ROOT
ATOM      1  C   UNL     1     -33.511 -12.287  12.524  0.00  0.00    +0.044 C 
ATOM      2  C   UNL     1     -32.607 -12.568  13.697  0.00  0.00    -0.038 A 
ATOM      3  C   UNL     1     -31.436 -13.311  13.476  0.00  0.00    +0.006 A 
ATOM      4  C   UNL     1     -30.587 -13.638  14.535  0.00  0.00    +0.029 A 
ATOM      5  C   UNL     1     -30.891 -13.220  15.833  0.00  0.00    +0.106 A 
ATOM      6  C   UNL     1     -32.048 -12.468  16.066  0.00  0.00    +0.041 A 
ATOM      7  C   UNL     1     -32.900 -12.111  15.007  0.00  0.00    +0.041 A 
ENDROOT
BRANCH   7   8
ATOM      8  C   UNL     1     -34.088 -11.283  15.313  0.00  0.00    +0.242 C 
ATOM      9  N   UNL     1     -34.126  -9.897  14.972  0.00  0.00    -0.325 N 
ATOM     10  O   UNL     1     -35.062 -11.796  15.926  0.00  0.00    -0.270 OA
ATOM     11  H   UNL     1     -33.277  -9.410  14.611  0.00  0.00    +0.145 HD
ATOM     12  H   UNL     1     -34.986  -9.335  15.157  0.00  0.00    +0.145 HD
ENDBRANCH   7   8
BRANCH   5  13
ATOM     13  S   UNL     1     -29.848 -13.661  17.182  0.00  0.00    +0.061 S 
ATOM     14  O   UNL     1     -30.157 -15.062  17.635  0.00  0.00    -0.153 OA
ATOM     15  O   UNL     1     -28.417 -13.611  16.725  0.00  0.00    -0.153 OA
BRANCH  13  16
ATOM     16  N   UNL     1     -30.082 -12.537  18.498  0.00  0.00    -0.172 NA
ATOM     17  C   UNL     1     -29.499 -13.084  19.737  0.00  0.00    +0.137 C 
ATOM     18  C   UNL     1     -29.372 -11.991  20.817  0.00  0.00    +0.177 C 
ATOM     19  O   UNL     1     -30.186 -10.879  20.502  0.00  0.00    -0.374 OA
ATOM     20  C   UNL     1     -29.704 -10.237  19.330  0.00  0.00    +0.131 C 
ATOM     21  C   UNL     1     -30.713  -9.164  18.923  0.00  0.00    +0.039 C 
ATOM     22  C   UNL     1     -29.464 -11.244  18.171  0.00  0.00    +0.140 C 
ENDBRANCH  13  16
ENDBRANCH   5  13
TORSDOF 3
ENDMDL
MODEL 4
REMARK VINA RESULT:    -4.081      2.670      5.035
REMARK INTER + INTRA:          -4.997
REMARK INTER:                  -4.589
REMARK INTRA:                  -0.408
REMARK UNBOUND:                -0.200
REMARK  Name = 
REMARK  5 active torsions:
REMARK  status: ('A' for Active; 'I' for Inactive)
REMARK    1  A    between atoms: C_1  and  C_2
REMARK    2  A    between atoms: C_5  and  S_11
REMARK    3  A    between atoms: C_7  and  C_8
REMARK    4  A    between atoms: S_11  and  N_14
REMARK    5  A    between atoms: C_18  and  C_19
REMARK                            x       y       z     vdW  Elec       q    Type
REMARK                         _______ _______ _______ _____ _____    ______ ____
ROOT
ATOM      1  C   UNL     1     -29.095 -13.164  19.703  0.00  0.00    +0.044 C 
ATOM      2  C   UNL     1     -30.203 -12.732  18.777  0.00  0.00    -0.038 A 
ATOM      3  C   UNL     1     -31.083 -13.710  18.285  0.00  0.00    +0.006 A 
ATOM      4  C   UNL     1     -32.098 -13.370  17.388  0.00  0.00    +0.029 A 
ATOM      5  C   UNL     1     -32.255 -12.045  16.974  0.00  0.00    +0.106 A 
ATOM      6  C   UNL     1     -31.395 -11.058  17.467  0.00  0.00    +0.041 A 
ATOM      7  C   UNL     1     -30.382 -11.380  18.388  0.00  0.00    +0.041 A 
ENDROOT
BRANCH   7   8
ATOM      8  C   UNL     1     -29.529 -10.285  18.900  0.00  0.00    +0.242 C 
ATOM      9  N   UNL     1     -29.760  -9.713  20.188  0.00  0.00    -0.325 N 
ATOM     10  O   UNL     1     -28.612  -9.818  18.171  0.00  0.00    -0.270 OA
ATOM     11  H   UNL     1     -30.604  -9.967  20.744  0.00  0.00    +0.145 HD
ATOM     12  H   UNL     1     -29.124  -8.969  20.553  0.00  0.00    +0.145 HD
ENDBRANCH   7   8
BRANCH   5  13
ATOM     13  S   UNL     1     -33.508 -11.613  15.813  0.00  0.00    +0.061 S 
ATOM     14  O   UNL     1     -34.866 -11.905  16.391  0.00  0.00    -0.153 OA
ATOM     15  O   UNL     1     -33.416 -10.140  15.527  0.00  0.00    -0.153 OA
BRANCH  13  16
ATOM     16  N   UNL     1     -33.275 -12.513  14.335  0.00  0.00    -0.172 NA
ATOM     17  C   UNL     1     -34.300 -12.130  13.346  0.00  0.00    +0.137 C 
ATOM     18  C   UNL     1     -33.922 -12.629  11.938  0.00  0.00    +0.177 C 
ATOM     19  O   UNL     1     -32.931 -13.635  12.012  0.00  0.00    -0.374 OA
ATOM     20  C   UNL     1     -31.716 -13.088  12.502  0.00  0.00    +0.131 C 
ATOM     21  C   UNL     1     -30.737 -14.237  12.741  0.00  0.00    +0.039 C 
ATOM     22  C   UNL     1     -31.930 -12.260  13.799  0.00  0.00    +0.140 C 
ENDBRANCH  13  16
ENDBRANCH   5  13
TORSDOF 3
ENDMDL
MODEL 5
REMARK VINA RESULT:    -3.910      3.059      5.183
REMARK INTER + INTRA:          -4.796
REMARK INTER:                  -4.630
REMARK INTRA:                  -0.167
REMARK UNBOUND:                -0.200
REMARK  Name = 
REMARK  5 active torsions:
REMARK  status: ('A' for Active; 'I' for Inactive)
REMARK    1  A    between atoms: C_1  and  C_2
REMARK    2  A    between atoms: C_5  and  S_11
REMARK    3  A    between atoms: C_7  and  C_8
REMARK    4  A    between atoms: S_11  and  N_14
REMARK    5  A    between atoms: C_18  and  C_19
REMARK                            x       y       z     vdW  Elec       q    Type
REMARK                         _______ _______ _______ _____ _____    ______ ____
ROOT
ATOM      1  C   UNL     1     -31.628 -13.628  11.945  0.00  0.00    +0.044 C 
ATOM      2  C   UNL     1     -31.418 -13.559  13.436  0.00  0.00    -0.038 A 
ATOM      3  C   UNL     1     -30.339 -14.266  13.993  0.00  0.00    +0.006 A 
ATOM      4  C   UNL     1     -30.127 -14.272  15.372  0.00  0.00    +0.029 A 
ATOM      5  C   UNL     1     -30.985 -13.566  16.219  0.00  0.00    +0.106 A 
ATOM      6  C   UNL     1     -32.055 -12.846  15.677  0.00  0.00    +0.041 A 
ATOM      7  C   UNL     1     -32.269 -12.811  14.287  0.00  0.00    +0.041 A 
ENDROOT
BRANCH   7   8
ATOM      8  C   UNL     1     -33.397 -12.001  13.774  0.00  0.00    +0.242 C 
ATOM      9  N   UNL     1     -34.510 -12.618  13.126  0.00  0.00    -0.325 N 
ATOM     10  O   UNL     1     -33.354 -10.745  13.868  0.00  0.00    -0.270 OA
ATOM     11  H   UNL     1     -34.499 -13.633  12.891  0.00  0.00    +0.145 HD
ATOM     12  H   UNL     1     -35.317 -12.038  12.805  0.00  0.00    +0.145 HD
ENDBRANCH   7   8
BRANCH   5  13
ATOM     13  S   UNL     1     -30.748 -13.599  17.964  0.00  0.00    +0.061 S 
ATOM     14  O   UNL     1     -31.633 -12.575  18.622  0.00  0.00    -0.153 OA
ATOM     15  O   UNL     1     -31.128 -14.960  18.479  0.00  0.00    -0.153 OA
BRANCH  13  16
ATOM     16  N   UNL     1     -29.073 -13.277  18.337  0.00  0.00    -0.172 NA
ATOM     17  C   UNL     1     -28.696 -11.939  17.844  0.00  0.00    +0.137 C 
ATOM     18  C   UNL     1     -27.357 -11.483  18.454  0.00  0.00    +0.177 C 
ATOM     19  O   UNL     1     -26.653 -12.583  18.997  0.00  0.00    -0.374 OA
ATOM     20  C   UNL     1     -27.357 -13.111  20.112  0.00  0.00    +0.131 C 
ATOM     21  C   UNL     1     -26.663 -14.401  20.548  0.00  0.00    +0.039 C 
ATOM     22  C   UNL     1     -28.855 -13.366  19.788  0.00  0.00    +0.140 C 
ENDBRANCH  13  16
ENDBRANCH   5  13
TORSDOF 3
ENDMDL
MODEL 6
REMARK VINA RESULT:    -3.897      2.872      4.068
REMARK INTER + INTRA:          -4.781
REMARK INTER:                  -4.448
REMARK INTRA:                  -0.333
REMARK UNBOUND:                -0.200
REMARK  Name = 
REMARK  5 active torsions:
REMARK  status: ('A' for Active; 'I' for Inactive)
REMARK    1  A    between atoms: C_1  and  C_2
REMARK    2  A    between atoms: C_5  and  S_11
REMARK    3  A    between atoms: C_7  and  C_8
REMARK    4  A    between atoms: S_11  and  N_14
REMARK    5  A    between atoms: C_18  and  C_19
REMARK                            x       y       z     vdW  Elec       q    Type
REMARK                         _______ _______ _______ _____ _____    ______ ____
ROOT
ATOM      1  C   UNL     1     -29.622 -14.883  12.801  0.00  0.00    +0.044 C 
ATOM      2  C   UNL     1     -30.182 -14.164  14.002  0.00  0.00    -0.038 A 
ATOM      3  C   UNL     1     -29.546 -14.337  15.242  0.00  0.00    +0.006 A 
ATOM      4  C   UNL     1     -30.051 -13.730  16.393  0.00  0.00    +0.029 A 
ATOM      5  C   UNL     1     -31.197 -12.935  16.323  0.00  0.00    +0.106 A 
ATOM      6  C   UNL     1     -31.834 -12.743  15.092  0.00  0.00    +0.041 A 
ATOM      7  C   UNL     1     -31.324 -13.328  13.919  0.00  0.00    +0.041 A 
ENDROOT
BRANCH   7   8
ATOM      8  C   UNL     1     -32.022 -13.057  12.643  0.00  0.00    +0.242 C 
ATOM      9  N   UNL     1     -33.054 -13.923  12.170  0.00  0.00    -0.325 N 
ATOM     10  O   UNL     1     -31.670 -12.073  11.938  0.00  0.00    -0.270 OA
ATOM     11  H   UNL     1     -33.256 -14.828  12.647  0.00  0.00    +0.145 HD
ATOM     12  H   UNL     1     -33.565 -13.696  11.288  0.00  0.00    +0.145 HD
ENDBRANCH   7   8
BRANCH   5  13
ATOM     13  S   UNL     1     -31.865 -12.197  17.777  0.00  0.00    +0.061 S 
ATOM     14  O   UNL     1     -32.560 -10.909  17.427  0.00  0.00    -0.153 OA
ATOM     15  O   UNL     1     -32.873 -13.136  18.377  0.00  0.00    -0.153 OA
BRANCH  13  16
ATOM     16  N   UNL     1     -30.584 -11.898  18.926  0.00  0.00    -0.172 NA
ATOM     17  C   UNL     1     -30.775 -10.580  19.560  0.00  0.00    +0.137 C 
ATOM     18  C   UNL     1     -29.885 -10.435  20.810  0.00  0.00    +0.177 C 
ATOM     19  O   UNL     1     -28.855 -11.403  20.807  0.00  0.00    -0.374 OA
ATOM     20  C   UNL     1     -29.405 -12.704  20.947  0.00  0.00    +0.131 C 
ATOM     21  C   UNL     1     -28.283 -13.722  20.751  0.00  0.00    +0.039 C 
ATOM     22  C   UNL     1     -30.567 -12.957  19.945  0.00  0.00    +0.140 C 
ENDBRANCH  13  16
ENDBRANCH   5  13
TORSDOF 3
ENDMDL
MODEL 7
REMARK VINA RESULT:    -3.895      2.707      3.788
REMARK INTER + INTRA:          -4.779
REMARK INTER:                  -4.543
REMARK INTRA:                  -0.236
REMARK UNBOUND:                -0.200
REMARK  Name = 
REMARK  5 active torsions:
REMARK  status: ('A' for Active; 'I' for Inactive)
REMARK    1  A    between atoms: C_1  and  C_2
REMARK    2  A    between atoms: C_5  and  S_11
REMARK    3  A    between atoms: C_7  and  C_8
REMARK    4  A    between atoms: S_11  and  N_14
REMARK    5  A    between atoms: C_18  and  C_19
REMARK                            x       y       z     vdW  Elec       q    Type
REMARK                         _______ _______ _______ _____ _____    ______ ____
ROOT
ATOM      1  C   UNL     1     -33.171 -13.041  12.413  0.00  0.00    +0.044 C 
ATOM      2  C   UNL     1     -32.607 -12.375  13.642  0.00  0.00    -0.038 A 
ATOM      3  C   UNL     1     -33.296 -11.278  14.184  0.00  0.00    +0.006 A 
ATOM      4  C   UNL     1     -32.792 -10.597  15.293  0.00  0.00    +0.029 A 
ATOM      5  C   UNL     1     -31.595 -11.007  15.885  0.00  0.00    +0.106 A 
ATOM      6  C   UNL     1     -30.905 -12.106  15.364  0.00  0.00    +0.041 A 
ATOM      7  C   UNL     1     -31.410 -12.817  14.261  0.00  0.00    +0.041 A 
ENDROOT
BRANCH   7   8
ATOM      8  C   UNL     1     -30.653 -13.994  13.780  0.00  0.00    +0.242 C 
ATOM      9  N   UNL     1     -29.939 -13.955  12.544  0.00  0.00    -0.325 N 
ATOM     10  O   UNL     1     -30.674 -15.062  14.448  0.00  0.00    -0.270 OA
ATOM     11  H   UNL     1     -30.034 -13.144  11.895  0.00  0.00    +0.145 HD
ATOM     12  H   UNL     1     -29.376 -14.779  12.238  0.00  0.00    +0.145 HD
ENDBRANCH   7   8
BRANCH   5  13
ATOM     13  S   UNL     1     -30.931 -10.130  17.262  0.00  0.00    +0.061 S 
ATOM     14  O   UNL     1     -29.457  -9.905  17.065  0.00  0.00    -0.153 OA
ATOM     15  O   UNL     1     -31.610  -8.793  17.358  0.00  0.00    -0.153 OA
BRANCH  13  16
ATOM     16  N   UNL     1     -31.212 -11.038  18.727  0.00  0.00    -0.172 NA
ATOM     17  C   UNL     1     -29.998 -11.792  19.092  0.00  0.00    +0.137 C 
ATOM     18  C   UNL     1     -30.087 -12.313  20.540  0.00  0.00    +0.177 C 
ATOM     19  O   UNL     1     -31.423 -12.285  21.002  0.00  0.00    -0.374 OA
ATOM     20  C   UNL     1     -31.875 -10.943  21.110  0.00  0.00    +0.131 C 
ATOM     21  C   UNL     1     -33.369 -10.965  21.429  0.00  0.00    +0.039 C 
ATOM     22  C   UNL     1     -31.594 -10.128  19.816  0.00  0.00    +0.140 C 
ENDBRANCH  13  16
ENDBRANCH   5  13
TORSDOF 3
ENDMDL
MODEL 8
REMARK VINA RESULT:    -3.838      2.017      2.572
REMARK INTER + INTRA:          -4.711
REMARK INTER:                  -4.510
REMARK INTRA:                  -0.202
REMARK UNBOUND:                -0.200
REMARK  Name = 
REMARK  5 active torsions:
REMARK  status: ('A' for Active; 'I' for Inactive)
REMARK    1  A    between atoms: C_1  and  C_2
REMARK    2  A    between atoms: C_5  and  S_11
REMARK    3  A    between atoms: C_7  and  C_8
REMARK    4  A    between atoms: S_11  and  N_14
REMARK    5  A    between atoms: C_18  and  C_19
REMARK                            x       y       z     vdW  Elec       q    Type
REMARK                         _______ _______ _______ _____ _____    ______ ____
ROOT
ATOM      1  C   UNL     1     -32.113 -13.805  11.938  0.00  0.00    +0.044 C 
ATOM      2  C   UNL     1     -32.391 -12.969  13.161  0.00  0.00    -0.038 A 
ATOM      3  C   UNL     1     -33.488 -12.091  13.136  0.00  0.00    +0.006 A 
ATOM      4  C   UNL     1     -33.762 -11.262  14.225  0.00  0.00    +0.029 A 
ATOM      5  C   UNL     1     -32.949 -11.300  15.360  0.00  0.00    +0.106 A 
ATOM      6  C   UNL     1     -31.861 -12.179  15.404  0.00  0.00    +0.041 A 
ATOM      7  C   UNL     1     -31.585 -13.037  14.325  0.00  0.00    +0.041 A 
ENDROOT
BRANCH   7   8
ATOM      8  C   UNL     1     -30.442 -13.969  14.447  0.00  0.00    +0.242 C 
ATOM      9  N   UNL     1     -30.378 -14.919  15.512  0.00  0.00    -0.325 N 
ATOM     10  O   UNL     1     -29.488 -13.895  13.627  0.00  0.00    -0.270 OA
ATOM     11  H   UNL     1     -31.069 -14.897  16.293  0.00  0.00    +0.145 HD
ATOM     12  H   UNL     1     -29.587 -15.598  15.562  0.00  0.00    +0.145 HD
ENDBRANCH   7   8
BRANCH   5  13
ATOM     13  S   UNL     1     -33.264 -10.230  16.723  0.00  0.00    +0.061 S 
ATOM     14  O   UNL     1     -33.353  -8.805  16.248  0.00  0.00    -0.153 OA
ATOM     15  O   UNL     1     -34.579 -10.609  17.345  0.00  0.00    -0.153 OA
BRANCH  13  16
ATOM     16  N   UNL     1     -31.988 -10.392  17.905  0.00  0.00    -0.172 NA
ATOM     17  C   UNL     1     -31.554  -9.060  18.363  0.00  0.00    +0.137 C 
ATOM     18  C   UNL     1     -30.696  -9.167  19.639  0.00  0.00    +0.177 C 
ATOM     19  O   UNL     1     -30.223 -10.487  19.815  0.00  0.00    -0.374 OA
ATOM     20  C   UNL     1     -31.308 -11.365  20.077  0.00  0.00    +0.131 C 
ATOM     21  C   UNL     1     -30.777 -12.798  20.074  0.00  0.00    +0.039 C 
ATOM     22  C   UNL     1     -32.457 -11.195  19.043  0.00  0.00    +0.140 C 
ENDBRANCH  13  16
ENDBRANCH   5  13
TORSDOF 3
ENDMDL
MODEL 9
REMARK VINA RESULT:    -3.714      2.547      4.022
REMARK INTER + INTRA:          -4.566
REMARK INTER:                  -4.207
REMARK INTRA:                  -0.359
REMARK UNBOUND:                -0.200
REMARK  Name = 
REMARK  5 active torsions:
REMARK  status: ('A' for Active; 'I' for Inactive)
REMARK    1  A    between atoms: C_1  and  C_2
REMARK    2  A    between atoms: C_5  and  S_11
REMARK    3  A    between atoms: C_7  and  C_8
REMARK    4  A    between atoms: S_11  and  N_14
REMARK    5  A    between atoms: C_18  and  C_19
REMARK                            x       y       z     vdW  Elec       q    Type
REMARK                         _______ _______ _______ _____ _____    ______ ____
ROOT
ATOM      1  C   UNL     1     -31.627 -13.565  12.537  0.00  0.00    +0.044 C 
ATOM      2  C   UNL     1     -31.949 -12.710  13.735  0.00  0.00    -0.038 A 
ATOM      3  C   UNL     1     -30.989 -12.596  14.754  0.00  0.00    +0.006 A 
ATOM      4  C   UNL     1     -31.256 -11.854  15.906  0.00  0.00    +0.029 A 
ATOM      5  C   UNL     1     -32.484 -11.205  16.055  0.00  0.00    +0.106 A 
ATOM      6  C   UNL     1     -33.445 -11.298  15.042  0.00  0.00    +0.041 A 
ATOM      7  C   UNL     1     -33.183 -12.023  13.866  0.00  0.00    +0.041 A 
ENDROOT
BRANCH   7   8
ATOM      8  C   UNL     1     -34.225 -12.053  12.816  0.00  0.00    +0.242 C 
ATOM      9  N   UNL     1     -35.063 -13.196  12.642  0.00  0.00    -0.325 N 
ATOM     10  O   UNL     1     -34.347 -11.072  12.033  0.00  0.00    -0.270 OA
ATOM     11  H   UNL     1     -34.880 -14.079  13.166  0.00  0.00    +0.145 HD
ATOM     12  H   UNL     1     -35.820 -13.187  11.924  0.00  0.00    +0.145 HD
ENDBRANCH   7   8
BRANCH   5  13
ATOM     13  S   UNL     1     -32.845 -10.298  17.521  0.00  0.00    +0.061 S 
ATOM     14  O   UNL     1     -32.976  -8.834  17.200  0.00  0.00    -0.153 OA
ATOM     15  O   UNL     1     -34.152 -10.783  18.082  0.00  0.00    -0.153 OA
BRANCH  13  16
ATOM     16  N   UNL     1     -31.575 -10.546  18.694  0.00  0.00    -0.172 NA
ATOM     17  C   UNL     1     -31.215  -9.263  19.326  0.00  0.00    +0.137 C 
ATOM     18  C   UNL     1     -30.367  -9.490  20.592  0.00  0.00    +0.177 C 
ATOM     19  O   UNL     1     -29.827 -10.797  20.606  0.00  0.00    -0.374 OA
ATOM     20  C   UNL     1     -30.868 -11.754  20.735  0.00  0.00    +0.131 C 
ATOM     21  C   UNL     1     -30.262 -13.146  20.558  0.00  0.00    +0.039 C 
ATOM     22  C   UNL     1     -32.013 -11.511  19.712  0.00  0.00    +0.140 C 
ENDBRANCH  13  16
ENDBRANCH   5  13
TORSDOF 3
ENDMDL
