MODEL 1
REMARK VINA RESULT:    -4.613      0.000      0.000
REMARK INTER + INTRA:          -7.659
REMARK INTER:                  -5.961
REMARK INTRA:                  -1.698
REMARK UNBOUND:                -1.698
REMARK  Name = 
REMARK  7 active torsions:
REMARK  status: ('A' for Active; 'I' for Inactive)
REMARK    1  A    between atoms: C_1  and  O_2
REMARK    2  A    between atoms: O_2  and  C_3
REMARK    3  A    between atoms: C_6  and  C_9
REMARK    4  A    between atoms: C_9  and  N_10
REMARK    5  A    between atoms: C_9  and  C_21
REMARK    6  A    between atoms: C_11  and  C_13
REMARK    7  A    between atoms: C_16  and  C_17
REMARK                            x       y       z     vdW  Elec       q    Type
REMARK                         _______ _______ _______ _____ _____    ______ ____
ROOT
ATOM      1  C   UNL     1     -30.965 -12.817  18.117  0.00  0.00    +0.134 C 
ENDROOT
BRANCH   1   5
ATOM      2  C   UNL     1     -27.351 -13.193  20.519  0.00  0.00    +0.120 A 
ATOM      3  C   UNL     1     -27.293 -12.588  19.259  0.00  0.00    +0.046 A 
ATOM      4  C   UNL     1     -28.443 -12.467  18.473  0.00  0.00    +0.009 A 
ATOM      5  C   UNL     1     -29.677 -12.980  18.921  0.00  0.00    -0.023 A 
ATOM      6  C   UNL     1     -29.736 -13.546  20.210  0.00  0.00    +0.009 A 
ATOM      7  C   UNL     1     -28.585 -13.667  20.994  0.00  0.00    +0.046 A 
BRANCH   2   9
ATOM      8  C   UNL     1     -25.295 -14.419  21.240  0.00  0.00    +0.277 C 
ATOM      9  O   UNL     1     -26.167 -13.293  21.265  0.00  0.00    -0.495 OA
ENDBRANCH   2   9
ENDBRANCH   1   5
BRANCH   1  10
ATOM     10  C   UNL     1     -30.867 -13.275  16.669  0.00  0.00    -0.023 A 
ATOM     11  C   UNL     1     -31.342 -12.427  15.651  0.00  0.00    +0.006 A 
ATOM     12  C   UNL     1     -31.234 -12.798  14.309  0.00  0.00    +0.000 A 
ATOM     13  C   UNL     1     -30.640 -14.014  13.962  0.00  0.00    +0.000 A 
ATOM     14  C   UNL     1     -30.149 -14.859  14.960  0.00  0.00    +0.000 A 
ATOM     15  C   UNL     1     -30.254 -14.492  16.305  0.00  0.00    +0.006 A 
ENDBRANCH   1  10
BRANCH   1  16
ATOM     16  N   UNL     1     -31.519 -11.456  18.175  0.00  0.00    -0.300 N 
ATOM     17  C   UNL     1     -32.560 -11.036  19.077  0.00  0.00    +0.250 C 
ATOM     18  O   UNL     1     -33.040 -11.849  19.911  0.00  0.00    -0.270 OA
ATOM     19  H   UNL     1     -31.048 -10.731  17.588  0.00  0.00    +0.150 HD
BRANCH  17  20
ATOM     20  C   UNL     1     -33.072  -9.646  19.052  0.00  0.00    +0.101 A 
ATOM     21  C   UNL     1     -33.781  -9.155  20.156  0.00  0.00    +0.020 A 
ATOM     22  C   UNL     1     -34.265  -7.848  20.156  0.00  0.00    +0.022 A 
ATOM     23  C   UNL     1     -34.037  -7.028  19.047  0.00  0.00    +0.016 A 
ATOM     24  C   UNL     1     -34.585  -5.631  19.021  0.00  0.00    +0.063 C 
ATOM     25  N   UNL     1     -33.379  -7.526  17.961  0.00  0.00    -0.326 N 
ATOM     26  C   UNL     1     -32.899  -8.802  17.935  0.00  0.00    +0.261 A 
ATOM     27  O   UNL     1     -32.328  -9.224  16.893  0.00  0.00    -0.267 OA
ATOM     28  H   UNL     1     -33.244  -6.919  17.120  0.00  0.00    +0.169 HD
ENDBRANCH  17  20
ENDBRANCH   1  16
TORSDOF 5
ENDMDL
MODEL 2
REMARK VINA RESULT:    -4.605      2.934      6.678
REMARK INTER + INTRA:          -7.649
REMARK INTER:                  -6.386
REMARK INTRA:                  -1.264
REMARK UNBOUND:                -1.698
REMARK  Name = 
REMARK  7 active torsions:
REMARK  status: ('A' for Active; 'I' for Inactive)
REMARK    1  A    between atoms: C_1  and  O_2
REMARK    2  A    between atoms: O_2  and  C_3
REMARK    3  A    between atoms: C_6  and  C_9
REMARK    4  A    between atoms: C_9  and  N_10
REMARK    5  A    between atoms: C_9  and  C_21
REMARK    6  A    between atoms: C_11  and  C_13
REMARK    7  A    between atoms: C_16  and  C_17
REMARK                            x       y       z     vdW  Elec       q    Type
REMARK                         _______ _______ _______ _____ _____    ______ ____
ROOT
ATOM      1  C   UNL     1     -29.263 -13.182  19.821  0.00  0.00    +0.134 C 
ENDROOT
BRANCH   1   5
ATOM      2  C   UNL     1     -30.840  -9.276  20.927  0.00  0.00    +0.120 A 
ATOM      3  C   UNL     1     -30.180  -9.442  19.706  0.00  0.00    +0.046 A 
ATOM      4  C   UNL     1     -29.662 -10.688  19.340  0.00  0.00    +0.009 A 
ATOM      5  C   UNL     1     -29.766 -11.793  20.209  0.00  0.00    -0.023 A 
ATOM      6  C   UNL     1     -30.473 -11.629  21.416  0.00  0.00    +0.009 A 
ATOM      7  C   UNL     1     -30.989 -10.382  21.780  0.00  0.00    +0.046 A 
BRANCH   2   9
ATOM      8  C   UNL     1     -30.721  -6.779  20.861  0.00  0.00    +0.277 C 
ATOM      9  O   UNL     1     -31.337  -8.004  21.248  0.00  0.00    -0.495 OA
ENDBRANCH   2   9
ENDBRANCH   1   5
BRANCH   1  10
ATOM     10  C   UNL     1     -27.885 -13.530  20.368  0.00  0.00    -0.023 A 
ATOM     11  C   UNL     1     -27.791 -14.285  21.551  0.00  0.00    +0.006 A 
ATOM     12  C   UNL     1     -26.544 -14.654  22.061  0.00  0.00    +0.000 A 
ATOM     13  C   UNL     1     -25.375 -14.286  21.391  0.00  0.00    +0.000 A 
ATOM     14  C   UNL     1     -25.453 -13.551  20.206  0.00  0.00    +0.000 A 
ATOM     15  C   UNL     1     -26.698 -13.180  19.691  0.00  0.00    +0.006 A 
ENDBRANCH   1  10
BRANCH   1  16
ATOM     16  N   UNL     1     -29.304 -13.432  18.372  0.00  0.00    -0.300 N 
ATOM     17  C   UNL     1     -30.479 -13.843  17.648  0.00  0.00    +0.250 C 
ATOM     18  O   UNL     1     -31.576 -13.983  18.250  0.00  0.00    -0.270 OA
ATOM     19  H   UNL     1     -28.443 -13.196  17.829  0.00  0.00    +0.150 HD
BRANCH  17  20
ATOM     20  C   UNL     1     -30.423 -14.092  16.189  0.00  0.00    +0.101 A 
ATOM     21  C   UNL     1     -29.344 -14.811  15.655  0.00  0.00    +0.020 A 
ATOM     22  C   UNL     1     -29.275 -15.062  14.287  0.00  0.00    +0.022 A 
ATOM     23  C   UNL     1     -30.290 -14.595  13.446  0.00  0.00    +0.016 A 
ATOM     24  C   UNL     1     -30.208 -14.829  11.966  0.00  0.00    +0.063 C 
ATOM     25  N   UNL     1     -31.317 -13.864  13.969  0.00  0.00    -0.326 N 
ATOM     26  C   UNL     1     -31.405 -13.600  15.304  0.00  0.00    +0.261 A 
ATOM     27  O   UNL     1     -32.356 -12.891  15.730  0.00  0.00    -0.267 OA
ATOM     28  H   UNL     1     -32.054 -13.486  13.331  0.00  0.00    +0.169 HD
ENDBRANCH  17  20
ENDBRANCH   1  16
TORSDOF 5
ENDMDL
MODEL 3
REMARK VINA RESULT:    -4.590      2.290      7.473
REMARK INTER + INTRA:          -7.630
REMARK INTER:                  -5.794
REMARK INTRA:                  -1.836
REMARK UNBOUND:                -1.698
REMARK  Name = 
REMARK  7 active torsions:
REMARK  status: ('A' for Active; 'I' for Inactive)
REMARK    1  A    between atoms: C_1  and  O_2
REMARK    2  A    between atoms: O_2  and  C_3
REMARK    3  A    between atoms: C_6  and  C_9
REMARK    4  A    between atoms: C_9  and  N_10
REMARK    5  A    between atoms: C_9  and  C_21
REMARK    6  A    between atoms: C_11  and  C_13
REMARK    7  A    between atoms: C_16  and  C_17
REMARK                            x       y       z     vdW  Elec       q    Type
REMARK                         _______ _______ _______ _____ _____    ______ ____
ROOT
ATOM      1  C   UNL     1     -32.424 -11.452  18.326  0.00  0.00    +0.134 C 
ENDROOT
BRANCH   1   5
ATOM      2  C   UNL     1     -33.380 -11.688  14.083  0.00  0.00    +0.120 A 
ATOM      3  C   UNL     1     -32.047 -11.739  14.503  0.00  0.00    +0.046 A 
ATOM      4  C   UNL     1     -31.724 -11.657  15.860  0.00  0.00    +0.009 A 
ATOM      5  C   UNL     1     -32.733 -11.489  16.831  0.00  0.00    -0.023 A 
ATOM      6  C   UNL     1     -34.075 -11.485  16.404  0.00  0.00    +0.009 A 
ATOM      7  C   UNL     1     -34.396 -11.566  15.046  0.00  0.00    +0.046 A 
BRANCH   2   9
ATOM      8  C   UNL     1     -33.536 -12.962  11.938  0.00  0.00    +0.277 C 
ATOM      9  O   UNL     1     -33.650 -11.770  12.709  0.00  0.00    -0.495 OA
ENDBRANCH   2   9
ENDBRANCH   1   5
BRANCH   1  10
ATOM     10  C   UNL     1     -32.653 -10.098  18.984  0.00  0.00    -0.023 A 
ATOM     11  C   UNL     1     -33.672  -9.971  19.946  0.00  0.00    +0.006 A 
ATOM     12  C   UNL     1     -33.886  -8.754  20.598  0.00  0.00    +0.000 A 
ATOM     13  C   UNL     1     -33.079  -7.652  20.308  0.00  0.00    +0.000 A 
ATOM     14  C   UNL     1     -32.053  -7.767  19.368  0.00  0.00    +0.000 A 
ATOM     15  C   UNL     1     -31.834  -8.983  18.713  0.00  0.00    +0.006 A 
ENDBRANCH   1  10
BRANCH   1  16
ATOM     16  N   UNL     1     -31.079 -11.946  18.654  0.00  0.00    -0.300 N 
ATOM     17  C   UNL     1     -30.735 -12.625  19.877  0.00  0.00    +0.250 C 
ATOM     18  O   UNL     1     -31.621 -12.858  20.742  0.00  0.00    -0.270 OA
ATOM     19  H   UNL     1     -30.357 -11.885  17.901  0.00  0.00    +0.150 HD
BRANCH  17  20
ATOM     20  C   UNL     1     -29.346 -13.072  20.133  0.00  0.00    +0.101 A 
ATOM     21  C   UNL     1     -28.915 -13.255  21.454  0.00  0.00    +0.020 A 
ATOM     22  C   UNL     1     -27.615 -13.681  21.717  0.00  0.00    +0.022 A 
ATOM     23  C   UNL     1     -26.741 -13.928  20.653  0.00  0.00    +0.016 A 
ATOM     24  C   UNL     1     -25.328 -14.353  20.925  0.00  0.00    +0.063 C 
ATOM     25  N   UNL     1     -27.157 -13.711  19.372  0.00  0.00    -0.326 N 
ATOM     26  C   UNL     1     -28.422 -13.290  19.089  0.00  0.00    +0.261 A 
ATOM     27  O   UNL     1     -28.745 -13.071  17.890  0.00  0.00    -0.267 OA
ATOM     28  H   UNL     1     -26.487 -13.862  18.583  0.00  0.00    +0.169 HD
ENDBRANCH  17  20
ENDBRANCH   1  16
TORSDOF 5
ENDMDL
MODEL 4
REMARK VINA RESULT:    -4.565      2.121      6.702
REMARK INTER + INTRA:          -7.597
REMARK INTER:                  -6.250
REMARK INTRA:                  -1.347
REMARK UNBOUND:                -1.698
REMARK  Name = 
REMARK  7 active torsions:
REMARK  status: ('A' for Active; 'I' for Inactive)
REMARK    1  A    between atoms: C_1  and  O_2
REMARK    2  A    between atoms: O_2  and  C_3
REMARK    3  A    between atoms: C_6  and  C_9
REMARK    4  A    between atoms: C_9  and  N_10
REMARK    5  A    between atoms: C_9  and  C_21
REMARK    6  A    between atoms: C_11  and  C_13
REMARK    7  A    between atoms: C_16  and  C_17
REMARK                            x       y       z     vdW  Elec       q    Type
REMARK                         _______ _______ _______ _____ _____    ______ ____
ROOT
ATOM      1  C   UNL     1     -30.926 -10.661  16.926  0.00  0.00    +0.134 C 
ENDROOT
BRANCH   1   5
ATOM      2  C   UNL     1     -33.905  -8.868  19.549  0.00  0.00    +0.120 A 
ATOM      3  C   UNL     1     -33.815 -10.259  19.442  0.00  0.00    +0.046 A 
ATOM      4  C   UNL     1     -32.869 -10.849  18.599  0.00  0.00    +0.009 A 
ATOM      5  C   UNL     1     -32.008 -10.054  17.815  0.00  0.00    -0.023 A 
ATOM      6  C   UNL     1     -32.074  -8.654  17.964  0.00  0.00    +0.009 A 
ATOM      7  C   UNL     1     -33.021  -8.066  18.806  0.00  0.00    +0.046 A 
BRANCH   2   9
ATOM      8  C   UNL     1     -34.625  -7.926  21.750  0.00  0.00    +0.277 C 
ATOM      9  O   UNL     1     -34.874  -8.326  20.406  0.00  0.00    -0.495 OA
ENDBRANCH   2   9
ENDBRANCH   1   5
BRANCH   1  10
ATOM     10  C   UNL     1     -31.452 -11.381  15.692  0.00  0.00    -0.023 A 
ATOM     11  C   UNL     1     -30.934 -12.648  15.369  0.00  0.00    +0.006 A 
ATOM     12  C   UNL     1     -31.421 -13.355  14.265  0.00  0.00    +0.000 A 
ATOM     13  C   UNL     1     -32.438 -12.811  13.478  0.00  0.00    +0.000 A 
ATOM     14  C   UNL     1     -32.974 -11.562  13.797  0.00  0.00    +0.000 A 
ATOM     15  C   UNL     1     -32.492 -10.851  14.900  0.00  0.00    +0.006 A 
ENDBRANCH   1  10
BRANCH   1  16
ATOM     16  N   UNL     1     -29.996 -11.536  17.656  0.00  0.00    -0.300 N 
ATOM     17  C   UNL     1     -29.067 -11.083  18.660  0.00  0.00    +0.250 C 
ATOM     18  O   UNL     1     -29.033  -9.867  18.987  0.00  0.00    -0.270 OA
ATOM     19  H   UNL     1     -30.096 -12.564  17.500  0.00  0.00    +0.150 HD
BRANCH  17  20
ATOM     20  C   UNL     1     -28.151 -12.034  19.331  0.00  0.00    +0.101 A 
ATOM     21  C   UNL     1     -28.670 -12.953  20.253  0.00  0.00    +0.020 A 
ATOM     22  C   UNL     1     -27.828 -13.861  20.892  0.00  0.00    +0.022 A 
ATOM     23  C   UNL     1     -26.459 -13.852  20.605  0.00  0.00    +0.016 A 
ATOM     24  C   UNL     1     -25.537 -14.801  21.312  0.00  0.00    +0.063 C 
ATOM     25  N   UNL     1     -25.957 -12.930  19.734  0.00  0.00    -0.326 N 
ATOM     26  C   UNL     1     -26.759 -12.028  19.100  0.00  0.00    +0.261 A 
ATOM     27  O   UNL     1     -26.240 -11.174  18.331  0.00  0.00    -0.267 OA
ATOM     28  H   UNL     1     -24.928 -12.904  19.551  0.00  0.00    +0.169 HD
ENDBRANCH  17  20
ENDBRANCH   1  16
TORSDOF 5
ENDMDL
MODEL 5
REMARK VINA RESULT:    -4.547      2.216      7.437
REMARK INTER + INTRA:          -7.574
REMARK INTER:                  -5.772
REMARK INTRA:                  -1.802
REMARK UNBOUND:                -1.698
REMARK  Name = 
REMARK  7 active torsions:
REMARK  status: ('A' for Active; 'I' for Inactive)
REMARK    1  A    between atoms: C_1  and  O_2
REMARK    2  A    between atoms: O_2  and  C_3
REMARK    3  A    between atoms: C_6  and  C_9
REMARK    4  A    between atoms: C_9  and  N_10
REMARK    5  A    between atoms: C_9  and  C_21
REMARK    6  A    between atoms: C_11  and  C_13
REMARK    7  A    between atoms: C_16  and  C_17
REMARK                            x       y       z     vdW  Elec       q    Type
REMARK                         _______ _______ _______ _____ _____    ______ ____
ROOT
ATOM      1  C   UNL     1     -32.308 -11.806  18.405  0.00  0.00    +0.134 C 
ENDROOT
BRANCH   1   5
ATOM      2  C   UNL     1     -33.298 -12.069  14.172  0.00  0.00    +0.120 A 
ATOM      3  C   UNL     1     -34.273 -11.676  15.095  0.00  0.00    +0.046 A 
ATOM      4  C   UNL     1     -33.972 -11.594  16.457  0.00  0.00    +0.009 A 
ATOM      5  C   UNL     1     -32.690 -11.936  16.933  0.00  0.00    -0.023 A 
ATOM      6  C   UNL     1     -31.701 -12.286  15.992  0.00  0.00    +0.009 A 
ATOM      7  C   UNL     1     -32.004 -12.368  14.630  0.00  0.00    +0.046 A 
BRANCH   2   9
ATOM      8  C   UNL     1     -33.263 -13.190  11.938  0.00  0.00    +0.277 C 
ATOM      9  O   UNL     1     -33.653 -12.139  12.817  0.00  0.00    -0.495 OA
ENDBRANCH   2   9
ENDBRANCH   1   5
BRANCH   1  10
ATOM     10  C   UNL     1     -32.565 -10.431  19.006  0.00  0.00    -0.023 A 
ATOM     11  C   UNL     1     -31.811  -9.335  18.548  0.00  0.00    +0.006 A 
ATOM     12  C   UNL     1     -32.047  -8.052  19.049  0.00  0.00    +0.000 A 
ATOM     13  C   UNL     1     -33.045  -7.844  20.004  0.00  0.00    +0.000 A 
ATOM     14  C   UNL     1     -33.813  -8.919  20.455  0.00  0.00    +0.000 A 
ATOM     15  C   UNL     1     -33.582 -10.205  19.956  0.00  0.00    +0.006 A 
ENDBRANCH   1  10
BRANCH   1  16
ATOM     16  N   UNL     1     -30.926 -12.224  18.686  0.00  0.00    -0.300 N 
ATOM     17  C   UNL     1     -30.458 -12.689  19.967  0.00  0.00    +0.250 C 
ATOM     18  O   UNL     1     -31.258 -12.788  20.934  0.00  0.00    -0.270 OA
ATOM     19  H   UNL     1     -30.275 -12.277  17.870  0.00  0.00    +0.150 HD
BRANCH  17  20
ATOM     20  C   UNL     1     -29.040 -13.070  20.164  0.00  0.00    +0.101 A 
ATOM     21  C   UNL     1     -28.696 -13.905  21.236  0.00  0.00    +0.020 A 
ATOM     22  C   UNL     1     -27.370 -14.282  21.436  0.00  0.00    +0.022 A 
ATOM     23  C   UNL     1     -26.382 -13.823  20.559  0.00  0.00    +0.016 A 
ATOM     24  C   UNL     1     -24.945 -14.193  20.785  0.00  0.00    +0.063 C 
ATOM     25  N   UNL     1     -26.720 -12.981  19.541  0.00  0.00    -0.326 N 
ATOM     26  C   UNL     1     -28.010 -12.594  19.326  0.00  0.00    +0.261 A 
ATOM     27  O   UNL     1     -28.263 -11.786  18.392  0.00  0.00    -0.267 OA
ATOM     28  H   UNL     1     -25.972 -12.612  18.910  0.00  0.00    +0.169 HD
ENDBRANCH  17  20
ENDBRANCH   1  16
TORSDOF 5
ENDMDL
MODEL 6
REMARK VINA RESULT:    -4.503      2.283      5.409
REMARK INTER + INTRA:          -7.518
REMARK INTER:                  -6.236
REMARK INTRA:                  -1.282
REMARK UNBOUND:                -1.698
REMARK  Name = 
REMARK  7 active torsions:
REMARK  status: ('A' for Active; 'I' for Inactive)
REMARK    1  A    between atoms: C_1  and  O_2
REMARK    2  A    between atoms: O_2  and  C_3
REMARK    3  A    between atoms: C_6  and  C_9
REMARK    4  A    between atoms: C_9  and  N_10
REMARK    5  A    between atoms: C_9  and  C_21
REMARK    6  A    between atoms: C_11  and  C_13
REMARK    7  A    between atoms: C_16  and  C_17
REMARK                            x       y       z     vdW  Elec       q    Type
REMARK                         _______ _______ _______ _____ _____    ______ ____
ROOT
ATOM      1  C   UNL     1     -30.203 -10.184  18.900  0.00  0.00    +0.134 C 
ENDROOT
BRANCH   1   5
ATOM      2  C   UNL     1     -27.529 -13.169  20.606  0.00  0.00    +0.120 A 
ATOM      3  C   UNL     1     -28.700 -12.813  21.281  0.00  0.00    +0.046 A 
ATOM      4  C   UNL     1     -29.565 -11.851  20.750  0.00  0.00    +0.009 A 
ATOM      5  C   UNL     1     -29.257 -11.198  19.539  0.00  0.00    -0.023 A 
ATOM      6  C   UNL     1     -28.099 -11.596  18.842  0.00  0.00    +0.009 A 
ATOM      7  C   UNL     1     -27.236 -12.557  19.375  0.00  0.00    +0.046 A 
BRANCH   2   9
ATOM      8  C   UNL     1     -25.335 -14.348  20.816  0.00  0.00    +0.277 C 
ATOM      9  O   UNL     1     -26.694 -14.137  21.184  0.00  0.00    -0.495 OA
ENDBRANCH   2   9
ENDBRANCH   1   5
BRANCH   1  10
ATOM     10  C   UNL     1     -31.136  -9.486  19.879  0.00  0.00    -0.023 A 
ATOM     11  C   UNL     1     -30.681  -8.341  20.558  0.00  0.00    +0.006 A 
ATOM     12  C   UNL     1     -31.523  -7.653  21.436  0.00  0.00    +0.000 A 
ATOM     13  C   UNL     1     -32.833  -8.091  21.638  0.00  0.00    +0.000 A 
ATOM     14  C   UNL     1     -33.305  -9.216  20.959  0.00  0.00    +0.000 A 
ATOM     15  C   UNL     1     -32.467  -9.908  20.078  0.00  0.00    +0.006 A 
ENDBRANCH   1  10
BRANCH   1  16
ATOM     16  N   UNL     1     -30.977 -10.737  17.779  0.00  0.00    -0.300 N 
ATOM     17  C   UNL     1     -30.979 -10.198  16.443  0.00  0.00    +0.250 C 
ATOM     18  O   UNL     1     -30.261  -9.201  16.163  0.00  0.00    -0.270 OA
ATOM     19  H   UNL     1     -31.475 -11.639  17.950  0.00  0.00    +0.150 HD
BRANCH  17  20
ATOM     20  C   UNL     1     -31.807 -10.809  15.379  0.00  0.00    +0.101 A 
ATOM     21  C   UNL     1     -31.353 -11.969  14.736  0.00  0.00    +0.020 A 
ATOM     22  C   UNL     1     -32.120 -12.565  13.736  0.00  0.00    +0.022 A 
ATOM     23  C   UNL     1     -33.348 -12.000  13.379  0.00  0.00    +0.016 A 
ATOM     24  C   UNL     1     -34.165 -12.612  12.279  0.00  0.00    +0.063 C 
ATOM     25  N   UNL     1     -33.765 -10.850  13.983  0.00  0.00    -0.326 N 
ATOM     26  C   UNL     1     -33.031 -10.245  14.961  0.00  0.00    +0.261 A 
ATOM     27  O   UNL     1     -33.445  -9.166  15.463  0.00  0.00    -0.267 OA
ATOM     28  H   UNL     1     -34.667 -10.412  13.686  0.00  0.00    +0.169 HD
ENDBRANCH  17  20
ENDBRANCH   1  16
TORSDOF 5
ENDMDL
MODEL 7
REMARK VINA RESULT:    -4.432      2.784      6.269
REMARK INTER + INTRA:          -7.425
REMARK INTER:                  -5.847
REMARK INTRA:                  -1.579
REMARK UNBOUND:                -1.698
REMARK  Name = 
REMARK  7 active torsions:
REMARK  status: ('A' for Active; 'I' for Inactive)
REMARK    1  A    between atoms: C_1  and  O_2
REMARK    2  A    between atoms: O_2  and  C_3
REMARK    3  A    between atoms: C_6  and  C_9
REMARK    4  A    between atoms: C_9  and  N_10
REMARK    5  A    between atoms: C_9  and  C_21
REMARK    6  A    between atoms: C_11  and  C_13
REMARK    7  A    between atoms: C_16  and  C_17
REMARK                            x       y       z     vdW  Elec       q    Type
REMARK                         _______ _______ _______ _____ _____    ______ ____
ROOT
ATOM      1  C   UNL     1     -30.014 -12.806  19.977  0.00  0.00    +0.134 C 
ENDROOT
BRANCH   1   5
ATOM      2  C   UNL     1     -31.187  -8.840  21.343  0.00  0.00    +0.120 A 
ATOM      3  C   UNL     1     -30.438  -8.982  20.170  0.00  0.00    +0.046 A 
ATOM      4  C   UNL     1     -30.048 -10.248  19.723  0.00  0.00    +0.009 A 
ATOM      5  C   UNL     1     -30.374 -11.403  20.462  0.00  0.00    -0.023 A 
ATOM      6  C   UNL     1     -31.167 -11.256  21.616  0.00  0.00    +0.009 A 
ATOM      7  C   UNL     1     -31.555  -9.990  22.062  0.00  0.00    +0.046 A 
BRANCH   2   9
ATOM      8  C   UNL     1     -30.818  -6.369  21.427  0.00  0.00    +0.277 C 
ATOM      9  O   UNL     1     -31.549  -7.548  21.751  0.00  0.00    -0.495 OA
ENDBRANCH   2   9
ENDBRANCH   1   5
BRANCH   1  10
ATOM     10  C   UNL     1     -28.650 -13.303  20.437  0.00  0.00    -0.023 A 
ATOM     11  C   UNL     1     -27.518 -13.010  19.655  0.00  0.00    +0.006 A 
ATOM     12  C   UNL     1     -26.246 -13.418  20.066  0.00  0.00    +0.000 A 
ATOM     13  C   UNL     1     -26.086 -14.112  21.267  0.00  0.00    +0.000 A 
ATOM     14  C   UNL     1     -27.198 -14.395  22.062  0.00  0.00    +0.000 A 
ATOM     15  C   UNL     1     -28.473 -13.988  21.657  0.00  0.00    +0.006 A 
ENDBRANCH   1  10
BRANCH   1  16
ATOM     16  N   UNL     1     -30.139 -12.968  18.520  0.00  0.00    -0.300 N 
ATOM     17  C   UNL     1     -31.391 -13.044  17.812  0.00  0.00    +0.250 C 
ATOM     18  O   UNL     1     -32.479 -12.942  18.439  0.00  0.00    -0.270 OA
ATOM     19  H   UNL     1     -29.256 -12.922  17.963  0.00  0.00    +0.150 HD
BRANCH  17  20
ATOM     20  C   UNL     1     -31.423 -13.228  16.343  0.00  0.00    +0.101 A 
ATOM     21  C   UNL     1     -32.294 -12.448  15.571  0.00  0.00    +0.020 A 
ATOM     22  C   UNL     1     -32.335 -12.600  14.187  0.00  0.00    +0.022 A 
ATOM     23  C   UNL     1     -31.498 -13.536  13.570  0.00  0.00    +0.016 A 
ATOM     24  C   UNL     1     -31.559 -13.733  12.083  0.00  0.00    +0.063 C 
ATOM     25  N   UNL     1     -30.680 -14.317  14.332  0.00  0.00    -0.326 N 
ATOM     26  C   UNL     1     -30.625 -14.191  15.689  0.00  0.00    +0.261 A 
ATOM     27  O   UNL     1     -29.877 -14.962  16.349  0.00  0.00    -0.267 OA
ATOM     28  H   UNL     1     -30.084 -15.040  13.869  0.00  0.00    +0.169 HD
ENDBRANCH  17  20
ENDBRANCH   1  16
TORSDOF 5
ENDMDL
MODEL 8
REMARK VINA RESULT:    -3.850      2.077      4.936
REMARK INTER + INTRA:          -6.673
REMARK INTER:                  -5.195
REMARK INTRA:                  -1.477
REMARK UNBOUND:                -1.698
REMARK  Name = 
REMARK  7 active torsions:
REMARK  status: ('A' for Active; 'I' for Inactive)
REMARK    1  A    between atoms: C_1  and  O_2
REMARK    2  A    between atoms: O_2  and  C_3
REMARK    3  A    between atoms: C_6  and  C_9
REMARK    4  A    between atoms: C_9  and  N_10
REMARK    5  A    between atoms: C_9  and  C_21
REMARK    6  A    between atoms: C_11  and  C_13
REMARK    7  A    between atoms: C_16  and  C_17
REMARK                            x       y       z     vdW  Elec       q    Type
REMARK                         _______ _______ _______ _____ _____    ______ ____
ROOT
ATOM      1  C   UNL     1     -29.436 -11.880  18.376  0.00  0.00    +0.134 C 
ENDROOT
BRANCH   1   5
ATOM      2  C   UNL     1     -30.487 -14.157  14.815  0.00  0.00    +0.120 A 
ATOM      3  C   UNL     1     -31.295 -13.092  15.228  0.00  0.00    +0.046 A 
ATOM      4  C   UNL     1     -30.974 -12.357  16.373  0.00  0.00    +0.009 A 
ATOM      5  C   UNL     1     -29.849 -12.694  17.152  0.00  0.00    -0.023 A 
ATOM      6  C   UNL     1     -29.015 -13.737  16.704  0.00  0.00    +0.009 A 
ATOM      7  C   UNL     1     -29.338 -14.472  15.560  0.00  0.00    +0.046 A 
BRANCH   2   9
ATOM      8  C   UNL     1     -30.018 -15.037  12.523  0.00  0.00    +0.277 C 
ATOM      9  O   UNL     1     -30.856 -14.865  13.662  0.00  0.00    -0.495 OA
ENDBRANCH   2   9
ENDBRANCH   1   5
BRANCH   1  10
ATOM     10  C   UNL     1     -28.671 -12.669  19.430  0.00  0.00    -0.023 A 
ATOM     11  C   UNL     1     -27.270 -12.751  19.337  0.00  0.00    +0.006 A 
ATOM     12  C   UNL     1     -26.532 -13.435  20.307  0.00  0.00    +0.000 A 
ATOM     13  C   UNL     1     -27.182 -14.036  21.388  0.00  0.00    +0.000 A 
ATOM     14  C   UNL     1     -28.570 -13.948  21.503  0.00  0.00    +0.000 A 
ATOM     15  C   UNL     1     -29.314 -13.264  20.536  0.00  0.00    +0.006 A 
ENDBRANCH   1  10
BRANCH   1  16
ATOM     16  N   UNL     1     -30.556 -11.163  19.004  0.00  0.00    -0.300 N 
ATOM     17  C   UNL     1     -30.534  -9.769  19.364  0.00  0.00    +0.250 C 
ATOM     18  O   UNL     1     -29.516  -9.068  19.119  0.00  0.00    -0.270 OA
ATOM     19  H   UNL     1     -31.456 -11.686  19.097  0.00  0.00    +0.150 HD
BRANCH  17  20
ATOM     20  C   UNL     1     -31.704  -9.134  20.012  0.00  0.00    +0.101 A 
ATOM     21  C   UNL     1     -31.507  -8.040  20.866  0.00  0.00    +0.020 A 
ATOM     22  C   UNL     1     -32.595  -7.423  21.481  0.00  0.00    +0.022 A 
ATOM     23  C   UNL     1     -33.887  -7.900  21.239  0.00  0.00    +0.016 A 
ATOM     24  C   UNL     1     -35.062  -7.266  21.923  0.00  0.00    +0.063 C 
ATOM     25  N   UNL     1     -34.066  -8.988  20.436  0.00  0.00    -0.326 N 
ATOM     26  C   UNL     1     -33.018  -9.613  19.827  0.00  0.00    +0.261 A 
ATOM     27  O   UNL     1     -33.236 -10.635  19.122  0.00  0.00    -0.267 OA
ATOM     28  H   UNL     1     -35.031  -9.363  20.289  0.00  0.00    +0.169 HD
ENDBRANCH  17  20
ENDBRANCH   1  16
TORSDOF 5
ENDMDL
