MODEL 1
REMARK VINA RESULT:    -4.333      0.000      0.000
REMARK INTER + INTRA:          -5.779
REMARK INTER:                  -5.599
REMARK INTRA:                  -0.180
REMARK UNBOUND:                -0.180
REMARK  Name = 
REMARK  6 active torsions:
REMARK  status: ('A' for Active; 'I' for Inactive)
REMARK    1  A    between atoms: C_1  and  N_2
REMARK    2  A    between atoms: N_2  and  C_3
REMARK    3  A    between atoms: N_2  and  S_10
REMARK    4  A    between atoms: C_3  and  C_4
REMARK    5  A    between atoms: S_10  and  C_13
REMARK    6  A    between atoms: C_16  and  C_19
REMARK                            x       y       z     vdW  Elec       q    Type
REMARK                         _______ _______ _______ _____ _____    ______ ____
ROOT
ATOM      1  S   UNL     1     -29.556 -10.368  18.661  0.00  0.00    +0.062 S 
ATOM      2  O   UNL     1     -28.177 -10.347  18.063  0.00  0.00    -0.153 OA
ATOM      3  O   UNL     1     -29.809  -9.061  19.361  0.00  0.00    -0.153 OA
ENDROOT
BRANCH   1   4
ATOM      4  C   UNL     1     -30.724 -10.592  17.363  0.00  0.00    +0.123 A 
ATOM      5  C   UNL     1     -30.568 -11.618  16.424  0.00  0.00    +0.032 A 
ATOM      6  C   UNL     1     -31.504 -11.772  15.400  0.00  0.00    +0.034 A 
ATOM      7  C   UNL     1     -32.597 -10.896  15.325  0.00  0.00    +0.144 A 
ATOM      8  N   UNL     1     -32.730  -9.909  16.255  0.00  0.00    -0.249 NA
ATOM      9  C   UNL     1     -31.830  -9.741  17.260  0.00  0.00    +0.139 A 
BRANCH   7  10
ATOM     10  C   UNL     1     -33.614 -11.045  14.232  0.00  0.00    +0.434 C 
ATOM     11  F   UNL     1     -33.043 -11.625  13.112  0.00  0.00    -0.164 F 
ATOM     12  F   UNL     1     -34.112  -9.802  13.888  0.00  0.00    -0.164 F 
ATOM     13  F   UNL     1     -34.652 -11.846  14.670  0.00  0.00    -0.164 F 
ENDBRANCH   7  10
ENDBRANCH   1   4
BRANCH   1  15
ATOM     14  C   UNL     1     -31.113 -11.876  20.143  0.00  0.00    +0.132 C 
ATOM     15  N   UNL     1     -29.695 -11.681  19.805  0.00  0.00    -0.174 NA
BRANCH  15  16
ATOM     16  C   UNL     1     -29.120 -12.907  19.222  0.00  0.00    +0.166 C 
BRANCH  16  17
ATOM     17  C   UNL     1     -27.983 -13.404  20.067  0.00  0.00    +0.075 A 
ATOM     18  C   UNL     1     -28.217 -13.967  21.329  0.00  0.00    +0.135 A 
ATOM     19  N   UNL     1     -27.170 -14.424  22.062  0.00  0.00    -0.260 NA
ATOM     20  C   UNL     1     -25.896 -14.348  21.594  0.00  0.00    +0.130 A 
ATOM     21  C   UNL     1     -25.659 -13.792  20.335  0.00  0.00    +0.131 A 
ATOM     22  N   UNL     1     -26.706 -13.335  19.600  0.00  0.00    -0.256 NA
ENDBRANCH  16  17
ENDBRANCH  15  16
ENDBRANCH   1  15
TORSDOF 5
ENDMDL
MODEL 2
REMARK VINA RESULT:    -4.286      4.513      6.706
REMARK INTER + INTRA:          -5.719
REMARK INTER:                  -4.848
REMARK INTRA:                  -0.871
REMARK UNBOUND:                -0.180
REMARK  Name = 
REMARK  6 active torsions:
REMARK  status: ('A' for Active; 'I' for Inactive)
REMARK    1  A    between atoms: C_1  and  N_2
REMARK    2  A    between atoms: N_2  and  C_3
REMARK    3  A    between atoms: N_2  and  S_10
REMARK    4  A    between atoms: C_3  and  C_4
REMARK    5  A    between atoms: S_10  and  C_13
REMARK    6  A    between atoms: C_16  and  C_19
REMARK                            x       y       z     vdW  Elec       q    Type
REMARK                         _______ _______ _______ _____ _____    ______ ____
ROOT
ATOM      1  S   UNL     1     -30.394 -10.271  17.947  0.00  0.00    +0.062 S 
ATOM      2  O   UNL     1     -30.676  -9.090  18.834  0.00  0.00    -0.153 OA
ATOM      3  O   UNL     1     -29.867  -9.781  16.626  0.00  0.00    -0.153 OA
ENDROOT
BRANCH   1   4
ATOM      4  C   UNL     1     -29.192 -11.286  18.736  0.00  0.00    +0.123 A 
ATOM      5  C   UNL     1     -29.560 -12.193  19.736  0.00  0.00    +0.032 A 
ATOM      6  C   UNL     1     -28.588 -12.984  20.352  0.00  0.00    +0.034 A 
ATOM      7  C   UNL     1     -27.247 -12.862  19.957  0.00  0.00    +0.144 A 
ATOM      8  N   UNL     1     -26.915 -11.976  18.977  0.00  0.00    -0.249 NA
ATOM      9  C   UNL     1     -27.846 -11.196  18.365  0.00  0.00    +0.139 A 
BRANCH   7  10
ATOM     10  C   UNL     1     -26.187 -13.702  20.606  0.00  0.00    +0.434 C 
ATOM     11  F   UNL     1     -26.277 -13.619  21.985  0.00  0.00    -0.164 F 
ATOM     12  F   UNL     1     -24.938 -13.260  20.211  0.00  0.00    -0.164 F 
ATOM     13  F   UNL     1     -26.344 -15.022  20.227  0.00  0.00    -0.164 F 
ENDBRANCH   7  10
ENDBRANCH   1   4
BRANCH   1  15
ATOM     14  C   UNL     1     -32.993 -10.461  18.273  0.00  0.00    +0.132 C 
ATOM     15  N   UNL     1     -31.857 -11.191  17.688  0.00  0.00    -0.174 NA
BRANCH  15  16
ATOM     16  C   UNL     1     -32.057 -11.404  16.243  0.00  0.00    +0.166 C 
BRANCH  16  17
ATOM     17  C   UNL     1     -31.333 -12.640  15.793  0.00  0.00    +0.075 A 
ATOM     18  C   UNL     1     -31.084 -12.872  14.434  0.00  0.00    +0.135 A 
ATOM     19  N   UNL     1     -30.411 -13.990  14.059  0.00  0.00    -0.260 NA
ATOM     20  C   UNL     1     -29.971 -14.889  14.978  0.00  0.00    +0.130 A 
ATOM     21  C   UNL     1     -30.213 -14.659  16.334  0.00  0.00    +0.131 A 
ATOM     22  N   UNL     1     -30.886 -13.540  16.711  0.00  0.00    -0.256 NA
ENDBRANCH  16  17
ENDBRANCH  15  16
ENDBRANCH   1  15
TORSDOF 5
ENDMDL
MODEL 3
REMARK VINA RESULT:    -4.242      2.040      2.702
REMARK INTER + INTRA:          -5.661
REMARK INTER:                  -5.183
REMARK INTRA:                  -0.478
REMARK UNBOUND:                -0.180
REMARK  Name = 
REMARK  6 active torsions:
REMARK  status: ('A' for Active; 'I' for Inactive)
REMARK    1  A    between atoms: C_1  and  N_2
REMARK    2  A    between atoms: N_2  and  C_3
REMARK    3  A    between atoms: N_2  and  S_10
REMARK    4  A    between atoms: C_3  and  C_4
REMARK    5  A    between atoms: S_10  and  C_13
REMARK    6  A    between atoms: C_16  and  C_19
REMARK                            x       y       z     vdW  Elec       q    Type
REMARK                         _______ _______ _______ _____ _____    ______ ____
ROOT
ATOM      1  S   UNL     1     -31.594 -12.354  18.498  0.00  0.00    +0.062 S 
ATOM      2  O   UNL     1     -32.738 -12.056  19.427  0.00  0.00    -0.153 OA
ATOM      3  O   UNL     1     -31.051 -13.721  18.809  0.00  0.00    -0.153 OA
ENDROOT
BRANCH   1   4
ATOM      4  C   UNL     1     -32.192 -12.304  16.843  0.00  0.00    +0.123 A 
ATOM      5  C   UNL     1     -31.332 -12.523  15.760  0.00  0.00    +0.032 A 
ATOM      6  C   UNL     1     -31.828 -12.474  14.456  0.00  0.00    +0.034 A 
ATOM      7  C   UNL     1     -33.189 -12.206  14.245  0.00  0.00    +0.144 A 
ATOM      8  N   UNL     1     -34.007 -12.003  15.315  0.00  0.00    -0.249 NA
ATOM      9  C   UNL     1     -33.544 -12.047  16.593  0.00  0.00    +0.139 A 
BRANCH   7  10
ATOM     10  C   UNL     1     -33.743 -12.149  12.851  0.00  0.00    +0.434 C 
ATOM     11  F   UNL     1     -34.339 -10.922  12.616  0.00  0.00    -0.164 F 
ATOM     12  F   UNL     1     -34.687 -13.145  12.686  0.00  0.00    -0.164 F 
ATOM     13  F   UNL     1     -32.722 -12.333  11.938  0.00  0.00    -0.164 F 
ENDBRANCH   7  10
ENDBRANCH   1   4
BRANCH   1  15
ATOM     14  C   UNL     1     -30.860  -9.837  18.339  0.00  0.00    +0.132 C 
ATOM     15  N   UNL     1     -30.332 -11.163  18.699  0.00  0.00    -0.174 NA
BRANCH  15  16
ATOM     16  C   UNL     1     -29.856 -11.178  20.095  0.00  0.00    +0.166 C 
BRANCH  16  17
ATOM     17  C   UNL     1     -28.730 -12.158  20.253  0.00  0.00    +0.075 A 
ATOM     18  C   UNL     1     -27.757 -12.301  19.255  0.00  0.00    +0.135 A 
ATOM     19  N   UNL     1     -26.740 -13.183  19.435  0.00  0.00    -0.260 NA
ATOM     20  C   UNL     1     -26.647 -13.930  20.566  0.00  0.00    +0.130 A 
ATOM     21  C   UNL     1     -27.613 -13.787  21.565  0.00  0.00    +0.131 A 
ATOM     22  N   UNL     1     -28.631 -12.904  21.387  0.00  0.00    -0.256 NA
ENDBRANCH  16  17
ENDBRANCH  15  16
ENDBRANCH   1  15
TORSDOF 5
ENDMDL
MODEL 4
REMARK VINA RESULT:    -4.159      2.176      2.608
REMARK INTER + INTRA:          -5.554
REMARK INTER:                  -5.001
REMARK INTRA:                  -0.554
REMARK UNBOUND:                -0.180
REMARK  Name = 
REMARK  6 active torsions:
REMARK  status: ('A' for Active; 'I' for Inactive)
REMARK    1  A    between atoms: C_1  and  N_2
REMARK    2  A    between atoms: N_2  and  C_3
REMARK    3  A    between atoms: N_2  and  S_10
REMARK    4  A    between atoms: C_3  and  C_4
REMARK    5  A    between atoms: S_10  and  C_13
REMARK    6  A    between atoms: C_16  and  C_19
REMARK                            x       y       z     vdW  Elec       q    Type
REMARK                         _______ _______ _______ _____ _____    ______ ____
ROOT
ATOM      1  S   UNL     1     -30.986 -12.459  18.530  0.00  0.00    +0.062 S 
ATOM      2  O   UNL     1     -32.017 -11.465  18.989  0.00  0.00    -0.153 OA
ATOM      3  O   UNL     1     -31.162 -13.739  19.300  0.00  0.00    -0.153 OA
ENDROOT
BRANCH   1   4
ATOM      4  C   UNL     1     -31.221 -12.753  16.810  0.00  0.00    +0.123 A 
ATOM      5  C   UNL     1     -30.554 -13.799  16.161  0.00  0.00    +0.032 A 
ATOM      6  C   UNL     1     -30.751 -14.009  14.796  0.00  0.00    +0.034 A 
ATOM      7  C   UNL     1     -31.622 -13.168  14.086  0.00  0.00    +0.144 A 
ATOM      8  N   UNL     1     -32.264 -12.162  14.742  0.00  0.00    -0.249 NA
ATOM      9  C   UNL     1     -32.086 -11.939  16.071  0.00  0.00    +0.139 A 
BRANCH   7  10
ATOM     10  C   UNL     1     -31.849 -13.377  12.618  0.00  0.00    +0.434 C 
ATOM     11  F   UNL     1     -31.000 -14.356  12.130  0.00  0.00    -0.164 F 
ATOM     12  F   UNL     1     -31.610 -12.198  11.938  0.00  0.00    -0.164 F 
ATOM     13  F   UNL     1     -33.156 -13.772  12.401  0.00  0.00    -0.164 F 
ENDBRANCH   7  10
ENDBRANCH   1   4
BRANCH   1  15
ATOM     14  C   UNL     1     -29.298 -10.468  18.248  0.00  0.00    +0.132 C 
ATOM     15  N   UNL     1     -29.380 -11.829  18.802  0.00  0.00    -0.174 NA
BRANCH  15  16
ATOM     16  C   UNL     1     -29.088 -11.826  20.247  0.00  0.00    +0.166 C 
BRANCH  16  17
ATOM     17  C   UNL     1     -28.075 -12.884  20.577  0.00  0.00    +0.075 A 
ATOM     18  C   UNL     1     -28.412 -13.972  21.394  0.00  0.00    +0.135 A 
ATOM     19  N   UNL     1     -27.479 -14.922  21.659  0.00  0.00    -0.260 NA
ATOM     20  C   UNL     1     -26.224 -14.841  21.145  0.00  0.00    +0.130 A 
ATOM     21  C   UNL     1     -25.887 -13.761  20.325  0.00  0.00    +0.131 A 
ATOM     22  N   UNL     1     -26.819 -12.809  20.058  0.00  0.00    -0.256 NA
ENDBRANCH  16  17
ENDBRANCH  15  16
ENDBRANCH   1  15
TORSDOF 5
ENDMDL
MODEL 5
REMARK VINA RESULT:    -4.147      2.549      3.290
REMARK INTER + INTRA:          -5.539
REMARK INTER:                  -4.846
REMARK INTRA:                  -0.693
REMARK UNBOUND:                -0.180
REMARK  Name = 
REMARK  6 active torsions:
REMARK  status: ('A' for Active; 'I' for Inactive)
REMARK    1  A    between atoms: C_1  and  N_2
REMARK    2  A    between atoms: N_2  and  C_3
REMARK    3  A    between atoms: N_2  and  S_10
REMARK    4  A    between atoms: C_3  and  C_4
REMARK    5  A    between atoms: S_10  and  C_13
REMARK    6  A    between atoms: C_16  and  C_19
REMARK                            x       y       z     vdW  Elec       q    Type
REMARK                         _______ _______ _______ _____ _____    ______ ____
ROOT
ATOM      1  S   UNL     1     -32.976 -10.856  18.403  0.00  0.00    +0.062 S 
ATOM      2  O   UNL     1     -34.284 -10.246  18.823  0.00  0.00    -0.153 OA
ATOM      3  O   UNL     1     -32.721 -12.089  19.226  0.00  0.00    -0.153 OA
ENDROOT
BRANCH   1   4
ATOM      4  C   UNL     1     -33.081 -11.282  16.698  0.00  0.00    +0.123 A 
ATOM      5  C   UNL     1     -31.937 -11.316  15.892  0.00  0.00    +0.032 A 
ATOM      6  C   UNL     1     -32.046 -11.651  14.541  0.00  0.00    +0.034 A 
ATOM      7  C   UNL     1     -33.306 -11.953  14.004  0.00  0.00    +0.144 A 
ATOM      8  N   UNL     1     -34.404 -11.919  14.810  0.00  0.00    -0.249 NA
ATOM      9  C   UNL     1     -34.320 -11.595  16.128  0.00  0.00    +0.139 A 
BRANCH   7  10
ATOM     10  C   UNL     1     -33.446 -12.316  12.555  0.00  0.00    +0.434 C 
ATOM     11  F   UNL     1     -33.939 -13.603  12.422  0.00  0.00    -0.164 F 
ATOM     12  F   UNL     1     -32.211 -12.244  11.938  0.00  0.00    -0.164 F 
ATOM     13  F   UNL     1     -34.316 -11.438  11.938  0.00  0.00    -0.164 F 
ENDBRANCH   7  10
ENDBRANCH   1   4
BRANCH   1  15
ATOM     14  C   UNL     1     -32.234  -8.353  18.688  0.00  0.00    +0.132 C 
ATOM     15  N   UNL     1     -31.676  -9.714  18.641  0.00  0.00    -0.174 NA
BRANCH  15  16
ATOM     16  C   UNL     1     -30.961 -10.033  19.891  0.00  0.00    +0.166 C 
BRANCH  16  17
ATOM     17  C   UNL     1     -29.691 -10.775  19.591  0.00  0.00    +0.075 A 
ATOM     18  C   UNL     1     -29.223 -11.776  20.453  0.00  0.00    +0.135 A 
ATOM     19  N   UNL     1     -28.081 -12.443  20.145  0.00  0.00    -0.260 NA
ATOM     20  C   UNL     1     -27.383 -12.160  19.014  0.00  0.00    +0.130 A 
ATOM     21  C   UNL     1     -27.849 -11.167  18.150  0.00  0.00    +0.131 A 
ATOM     22  N   UNL     1     -28.992 -10.499  18.456  0.00  0.00    -0.256 NA
ENDBRANCH  16  17
ENDBRANCH  15  16
ENDBRANCH   1  15
TORSDOF 5
ENDMDL
MODEL 6
REMARK VINA RESULT:    -4.097      1.898      3.938
REMARK INTER + INTRA:          -5.474
REMARK INTER:                  -4.409
REMARK INTRA:                  -1.065
REMARK UNBOUND:                -0.180
REMARK  Name = 
REMARK  6 active torsions:
REMARK  status: ('A' for Active; 'I' for Inactive)
REMARK    1  A    between atoms: C_1  and  N_2
REMARK    2  A    between atoms: N_2  and  C_3
REMARK    3  A    between atoms: N_2  and  S_10
REMARK    4  A    between atoms: C_3  and  C_4
REMARK    5  A    between atoms: S_10  and  C_13
REMARK    6  A    between atoms: C_16  and  C_19
REMARK                            x       y       z     vdW  Elec       q    Type
REMARK                         _______ _______ _______ _____ _____    ______ ____
ROOT
ATOM      1  S   UNL     1     -28.456 -12.135  18.527  0.00  0.00    +0.062 S 
ATOM      2  O   UNL     1     -27.850 -13.253  17.724  0.00  0.00    -0.153 OA
ATOM      3  O   UNL     1     -27.429 -11.052  18.715  0.00  0.00    -0.153 OA
ENDROOT
BRANCH   1   4
ATOM      4  C   UNL     1     -29.843 -11.504  17.647  0.00  0.00    +0.123 A 
ATOM      5  C   UNL     1     -29.910 -10.155  17.280  0.00  0.00    +0.032 A 
ATOM      6  C   UNL     1     -31.023  -9.676  16.588  0.00  0.00    +0.034 A 
ATOM      7  C   UNL     1     -32.067 -10.556  16.264  0.00  0.00    +0.144 A 
ATOM      8  N   UNL     1     -31.975 -11.866  16.627  0.00  0.00    -0.249 NA
ATOM      9  C   UNL     1     -30.900 -12.353  17.301  0.00  0.00    +0.139 A 
BRANCH   7  10
ATOM     10  C   UNL     1     -33.272 -10.061  15.519  0.00  0.00    +0.434 C 
ATOM     11  F   UNL     1     -34.425 -10.632  16.030  0.00  0.00    -0.164 F 
ATOM     12  F   UNL     1     -33.161 -10.395  14.182  0.00  0.00    -0.164 F 
ATOM     13  F   UNL     1     -33.362  -8.688  15.640  0.00  0.00    -0.164 F 
ENDBRANCH   7  10
ENDBRANCH   1   4
BRANCH   1  15
ATOM     14  C   UNL     1     -27.985 -13.700  20.582  0.00  0.00    +0.132 C 
ATOM     15  N   UNL     1     -28.972 -12.728  20.087  0.00  0.00    -0.174 NA
BRANCH  15  16
ATOM     16  C   UNL     1     -29.113 -11.598  21.023  0.00  0.00    +0.166 C 
BRANCH  16  17
ATOM     17  C   UNL     1     -30.498 -11.025  20.946  0.00  0.00    +0.075 A 
ATOM     18  C   UNL     1     -30.709  -9.641  21.017  0.00  0.00    +0.135 A 
ATOM     19  N   UNL     1     -31.972  -9.152  20.925  0.00  0.00    -0.260 NA
ATOM     20  C   UNL     1     -33.038  -9.979  20.763  0.00  0.00    +0.130 A 
ATOM     21  C   UNL     1     -32.832 -11.358  20.686  0.00  0.00    +0.131 A 
ATOM     22  N   UNL     1     -31.568 -11.850  20.777  0.00  0.00    -0.256 NA
ENDBRANCH  16  17
ENDBRANCH  15  16
ENDBRANCH   1  15
TORSDOF 5
ENDMDL
MODEL 7
REMARK VINA RESULT:    -3.983      2.096      4.124
REMARK INTER + INTRA:          -5.327
REMARK INTER:                  -4.303
REMARK INTRA:                  -1.024
REMARK UNBOUND:                -0.180
REMARK  Name = 
REMARK  6 active torsions:
REMARK  status: ('A' for Active; 'I' for Inactive)
REMARK    1  A    between atoms: C_1  and  N_2
REMARK    2  A    between atoms: N_2  and  C_3
REMARK    3  A    between atoms: N_2  and  S_10
REMARK    4  A    between atoms: C_3  and  C_4
REMARK    5  A    between atoms: S_10  and  C_13
REMARK    6  A    between atoms: C_16  and  C_19
REMARK                            x       y       z     vdW  Elec       q    Type
REMARK                         _______ _______ _______ _____ _____    ______ ____
ROOT
ATOM      1  S   UNL     1     -28.239 -12.566  19.346  0.00  0.00    +0.062 S 
ATOM      2  O   UNL     1     -27.139 -13.553  19.065  0.00  0.00    -0.153 OA
ATOM      3  O   UNL     1     -27.643 -11.194  19.498  0.00  0.00    -0.153 OA
ENDROOT
BRANCH   1   4
ATOM      4  C   UNL     1     -29.366 -12.587  17.994  0.00  0.00    +0.123 A 
ATOM      5  C   UNL     1     -29.856 -13.795  17.484  0.00  0.00    +0.032 A 
ATOM      6  C   UNL     1     -30.745 -13.787  16.407  0.00  0.00    +0.034 A 
ATOM      7  C   UNL     1     -31.140 -12.563  15.847  0.00  0.00    +0.144 A 
ATOM      8  N   UNL     1     -30.654 -11.401  16.366  0.00  0.00    -0.249 NA
ATOM      9  C   UNL     1     -29.788 -11.386  17.414  0.00  0.00    +0.139 A 
BRANCH   7  10
ATOM     10  C   UNL     1     -32.095 -12.532  14.690  0.00  0.00    +0.434 C 
ATOM     11  F   UNL     1     -33.398 -12.406  15.139  0.00  0.00    -0.164 F 
ATOM     12  F   UNL     1     -31.983 -13.703  13.964  0.00  0.00    -0.164 F 
ATOM     13  F   UNL     1     -31.799 -11.458  13.872  0.00  0.00    -0.164 F 
ENDBRANCH   7  10
ENDBRANCH   1   4
BRANCH   1  15
ATOM     14  C   UNL     1     -28.229 -13.914  21.600  0.00  0.00    +0.132 C 
ATOM     15  N   UNL     1     -29.079 -13.005  20.814  0.00  0.00    -0.174 NA
BRANCH  15  16
ATOM     16  C   UNL     1     -29.399 -11.788  21.582  0.00  0.00    +0.166 C 
BRANCH  16  17
ATOM     17  C   UNL     1     -30.726 -11.233  21.152  0.00  0.00    +0.075 A 
ATOM     18  C   UNL     1     -31.004  -9.864  21.266  0.00  0.00    +0.135 A 
ATOM     19  N   UNL     1     -32.207  -9.389  20.851  0.00  0.00    -0.260 NA
ATOM     20  C   UNL     1     -33.146 -10.217  20.323  0.00  0.00    +0.130 A 
ATOM     21  C   UNL     1     -32.871 -11.580  20.202  0.00  0.00    +0.131 A 
ATOM     22  N   UNL     1     -31.668 -12.058  20.617  0.00  0.00    -0.256 NA
ENDBRANCH  16  17
ENDBRANCH  15  16
ENDBRANCH   1  15
TORSDOF 5
ENDMDL
MODEL 8
REMARK VINA RESULT:    -3.949      4.218      7.448
REMARK INTER + INTRA:          -5.284
REMARK INTER:                  -4.653
REMARK INTRA:                  -0.631
REMARK UNBOUND:                -0.180
REMARK  Name = 
REMARK  6 active torsions:
REMARK  status: ('A' for Active; 'I' for Inactive)
REMARK    1  A    between atoms: C_1  and  N_2
REMARK    2  A    between atoms: N_2  and  C_3
REMARK    3  A    between atoms: N_2  and  S_10
REMARK    4  A    between atoms: C_3  and  C_4
REMARK    5  A    between atoms: S_10  and  C_13
REMARK    6  A    between atoms: C_16  and  C_19
REMARK                            x       y       z     vdW  Elec       q    Type
REMARK                         _______ _______ _______ _____ _____    ______ ____
ROOT
ATOM      1  S   UNL     1     -30.990 -10.052  17.144  0.00  0.00    +0.062 S 
ATOM      2  O   UNL     1     -31.564  -8.968  18.013  0.00  0.00    -0.153 OA
ATOM      3  O   UNL     1     -30.227  -9.423  16.011  0.00  0.00    -0.153 OA
ENDROOT
BRANCH   1   4
ATOM      4  C   UNL     1     -29.909 -11.038  18.124  0.00  0.00    +0.123 A 
ATOM      5  C   UNL     1     -29.435 -12.269  17.656  0.00  0.00    +0.032 A 
ATOM      6  C   UNL     1     -28.584 -13.036  18.452  0.00  0.00    +0.034 A 
ATOM      7  C   UNL     1     -28.209 -12.561  19.718  0.00  0.00    +0.144 A 
ATOM      8  N   UNL     1     -28.678 -11.357  20.149  0.00  0.00    -0.249 NA
ATOM      9  C   UNL     1     -29.508 -10.595  19.389  0.00  0.00    +0.139 A 
BRANCH   7  10
ATOM     10  C   UNL     1     -27.294 -13.370  20.590  0.00  0.00    +0.434 C 
ATOM     11  F   UNL     1     -25.974 -13.177  20.220  0.00  0.00    -0.164 F 
ATOM     12  F   UNL     1     -27.601 -14.712  20.468  0.00  0.00    -0.164 F 
ATOM     13  F   UNL     1     -27.448 -12.985  21.909  0.00  0.00    -0.164 F 
ENDBRANCH   7  10
ENDBRANCH   1   4
BRANCH   1  15
ATOM     14  C   UNL     1     -33.315 -11.209  17.528  0.00  0.00    +0.132 C 
ATOM     15  N   UNL     1     -32.272 -11.050  16.503  0.00  0.00    -0.174 NA
BRANCH  15  16
ATOM     16  C   UNL     1     -32.822 -10.427  15.285  0.00  0.00    +0.166 C 
BRANCH  16  17
ATOM     17  C   UNL     1     -32.878 -11.427  14.167  0.00  0.00    +0.075 A 
ATOM     18  C   UNL     1     -31.883 -12.403  14.024  0.00  0.00    +0.135 A 
ATOM     19  N   UNL     1     -31.971 -13.305  13.012  0.00  0.00    -0.260 NA
ATOM     20  C   UNL     1     -33.010 -13.281  12.136  0.00  0.00    +0.130 A 
ATOM     21  C   UNL     1     -34.006 -12.313  12.278  0.00  0.00    +0.131 A 
ATOM     22  N   UNL     1     -33.920 -11.409  13.290  0.00  0.00    -0.256 NA
ENDBRANCH  16  17
ENDBRANCH  15  16
ENDBRANCH   1  15
TORSDOF 5
ENDMDL
MODEL 9
REMARK VINA RESULT:    -3.939      1.055      1.768
REMARK INTER + INTRA:          -5.271
REMARK INTER:                  -4.894
REMARK INTRA:                  -0.377
REMARK UNBOUND:                -0.180
REMARK  Name = 
REMARK  6 active torsions:
REMARK  status: ('A' for Active; 'I' for Inactive)
REMARK    1  A    between atoms: C_1  and  N_2
REMARK    2  A    between atoms: N_2  and  C_3
REMARK    3  A    between atoms: N_2  and  S_10
REMARK    4  A    between atoms: C_3  and  C_4
REMARK    5  A    between atoms: S_10  and  C_13
REMARK    6  A    between atoms: C_16  and  C_19
REMARK                            x       y       z     vdW  Elec       q    Type
REMARK                         _______ _______ _______ _____ _____    ______ ____
ROOT
ATOM      1  S   UNL     1     -30.722  -9.836  19.270  0.00  0.00    +0.062 S 
ATOM      2  O   UNL     1     -29.286  -9.515  18.961  0.00  0.00    -0.153 OA
ATOM      3  O   UNL     1     -31.370  -8.634  19.901  0.00  0.00    -0.153 OA
ENDROOT
BRANCH   1   4
ATOM      4  C   UNL     1     -31.540 -10.239  17.764  0.00  0.00    +0.123 A 
ATOM      5  C   UNL     1     -30.813 -10.470  16.590  0.00  0.00    +0.032 A 
ATOM      6  C   UNL     1     -31.483 -10.782  15.406  0.00  0.00    +0.034 A 
ATOM      7  C   UNL     1     -32.884 -10.864  15.406  0.00  0.00    +0.144 A 
ATOM      8  N   UNL     1     -33.568 -10.641  16.563  0.00  0.00    -0.249 NA
ATOM      9  C   UNL     1     -32.935 -10.336  17.727  0.00  0.00    +0.139 A 
BRANCH   7  10
ATOM     10  C   UNL     1     -33.624 -11.200  14.145  0.00  0.00    +0.434 C 
ATOM     11  F   UNL     1     -34.257 -10.076  13.641  0.00  0.00    -0.164 F 
ATOM     12  F   UNL     1     -34.575 -12.168  14.408  0.00  0.00    -0.164 F 
ATOM     13  F   UNL     1     -32.737 -11.676  13.198  0.00  0.00    -0.164 F 
ENDBRANCH   7  10
ENDBRANCH   1   4
BRANCH   1  15
ATOM     14  C   UNL     1     -32.138 -11.207  21.005  0.00  0.00    +0.132 C 
ATOM     15  N   UNL     1     -30.813 -11.193  20.366  0.00  0.00    -0.174 NA
BRANCH  15  16
ATOM     16  C   UNL     1     -30.574 -12.445  19.623  0.00  0.00    +0.166 C 
BRANCH  16  17
ATOM     17  C   UNL     1     -29.227 -13.009  19.970  0.00  0.00    +0.075 A 
ATOM     18  C   UNL     1     -28.143 -12.875  19.092  0.00  0.00    +0.135 A 
ATOM     19  N   UNL     1     -26.933 -13.380  19.443  0.00  0.00    -0.260 NA
ATOM     20  C   UNL     1     -26.751 -14.013  20.631  0.00  0.00    +0.130 A 
ATOM     21  C   UNL     1     -27.827 -14.144  21.511  0.00  0.00    +0.131 A 
ATOM     22  N   UNL     1     -29.040 -13.639  21.163  0.00  0.00    -0.256 NA
ENDBRANCH  16  17
ENDBRANCH  15  16
ENDBRANCH   1  15
TORSDOF 5
ENDMDL
