MODEL 1
REMARK VINA RESULT:    -5.006      0.000      0.000
REMARK INTER + INTRA:          -9.636
REMARK INTER:                  -7.201
REMARK INTRA:                  -2.435
REMARK UNBOUND:                -2.435
REMARK  Name = 
REMARK  10 active torsions:
REMARK  status: ('A' for Active; 'I' for Inactive)
REMARK    1  A    between atoms: C_1  and  C_2
REMARK    2  A    between atoms: C_2  and  C_3
REMARK    3  A    between atoms: C_2  and  O_4
REMARK    4  A    between atoms: O_4  and  C_5
REMARK    5  A    between atoms: C_10  and  C_11
REMARK    6  A    between atoms: N_13  and  C_14
REMARK    7  A    between atoms: C_14  and  C_15
REMARK    8  A    between atoms: C_15  and  C_16
REMARK    9  A    between atoms: C_15  and  C_19
REMARK   10  A    between atoms: C_16  and  O_18
REMARK                            x       y       z     vdW  Elec       q    Type
REMARK                         _______ _______ _______ _____ _____    ______ ____
ROOT
ATOM      1  C   UNL     1     -32.339 -10.612  15.292  0.00  0.00    +0.248 C 
ATOM      2  O   UNL     1     -33.269  -9.960  15.840  0.00  0.00    -0.270 OA
ATOM      3  N   UNL     1     -30.980 -10.431  15.722  0.00  0.00    -0.310 N 
ATOM      4  H   UNL     1     -30.209 -10.859  15.162  0.00  0.00    +0.149 HD
ENDROOT
BRANCH   1  10
ATOM      5  C   UNL     1     -31.858 -12.654  13.891  0.00  0.00    +0.133 A 
ATOM      6  C   UNL     1     -32.195 -13.482  12.801  0.00  0.00    +0.046 A 
ATOM      7  C   UNL     1     -33.321 -13.206  12.023  0.00  0.00    +0.004 A 
ATOM      8  C   UNL     1     -34.128 -12.110  12.323  0.00  0.00    +0.001 A 
ATOM      9  C   UNL     1     -33.805 -11.277  13.395  0.00  0.00    +0.017 A 
ATOM     10  C   UNL     1     -32.664 -11.530  14.176  0.00  0.00    +0.078 A 
BRANCH   5  11
ATOM     11  O   UNL     1     -30.762 -12.935  14.727  0.00  0.00    -0.489 OA
BRANCH  11  13
ATOM     12  C   UNL     1     -28.962 -14.283  15.647  0.00  0.00    +0.051 C 
ATOM     13  C   UNL     1     -30.457 -14.197  15.325  0.00  0.00    +0.167 C 
ATOM     14  C   UNL     1     -31.280 -14.338  16.604  0.00  0.00    +0.051 C 
ENDBRANCH  11  13
ENDBRANCH   5  11
ENDBRANCH   1  10
BRANCH   3  15
ATOM     15  C   UNL     1     -30.609  -9.643  16.897  0.00  0.00    +0.119 C 
BRANCH  15  16
ATOM     16  C   UNL     1     -30.739 -10.484  18.185  0.00  0.00    +0.118 C 
BRANCH  16  17
ATOM     17  C   UNL     1     -29.606 -11.544  18.328  0.00  0.00    +0.009 C 
ATOM     18  C   UNL     1     -29.660 -12.270  19.686  0.00  0.00    +0.032 C 
ATOM     19  C   UNL     1     -28.562 -13.357  19.774  0.00  0.00    +0.160 C 
ATOM     20  O   UNL     1     -27.576 -13.245  18.758  0.00  0.00    -0.380 OA
ATOM     21  C   UNL     1     -27.105 -11.915  18.680  0.00  0.00    +0.160 C 
ATOM     22  C   UNL     1     -28.181 -10.987  18.087  0.00  0.00    +0.032 C 
ENDBRANCH  16  17
BRANCH  16  23
ATOM     23  C   UNL     1     -30.866  -9.595  19.398  0.00  0.00    +0.310 C 
ATOM     24  O   UNL     1     -31.911  -9.609  20.105  0.00  0.00    -0.251 OA
BRANCH  23  25
ATOM     25  O   UNL     1     -29.824  -8.734  19.730  0.00  0.00    -0.480 OA
ATOM     26  H   UNL     1     -29.095  -8.517  19.061  0.00  0.00    +0.295 HD
ENDBRANCH  23  25
ENDBRANCH  16  23
ENDBRANCH  15  16
ENDBRANCH   3  15
TORSDOF 8
ENDMDL
MODEL 2
REMARK VINA RESULT:    -4.819      1.309      1.480
REMARK INTER + INTRA:          -9.366
REMARK INTER:                  -6.637
REMARK INTRA:                  -2.730
REMARK UNBOUND:                -2.435
REMARK  Name = 
REMARK  10 active torsions:
REMARK  status: ('A' for Active; 'I' for Inactive)
REMARK    1  A    between atoms: C_1  and  C_2
REMARK    2  A    between atoms: C_2  and  C_3
REMARK    3  A    between atoms: C_2  and  O_4
REMARK    4  A    between atoms: O_4  and  C_5
REMARK    5  A    between atoms: C_10  and  C_11
REMARK    6  A    between atoms: N_13  and  C_14
REMARK    7  A    between atoms: C_14  and  C_15
REMARK    8  A    between atoms: C_15  and  C_16
REMARK    9  A    between atoms: C_15  and  C_19
REMARK   10  A    between atoms: C_16  and  O_18
REMARK                            x       y       z     vdW  Elec       q    Type
REMARK                         _______ _______ _______ _____ _____    ______ ____
ROOT
ATOM      1  C   UNL     1     -33.769 -11.715  15.928  0.00  0.00    +0.248 C 
ATOM      2  O   UNL     1     -34.996 -11.677  16.217  0.00  0.00    -0.270 OA
ATOM      3  N   UNL     1     -32.785 -11.334  16.905  0.00  0.00    -0.310 N 
ATOM      4  H   UNL     1     -31.790 -11.225  16.607  0.00  0.00    +0.149 HD
ENDROOT
BRANCH   1  10
ATOM      5  C   UNL     1     -32.110 -12.718  14.313  0.00  0.00    +0.133 A 
ATOM      6  C   UNL     1     -31.759 -13.055  12.989  0.00  0.00    +0.046 A 
ATOM      7  C   UNL     1     -32.645 -12.812  11.938  0.00  0.00    +0.004 A 
ATOM      8  C   UNL     1     -33.890 -12.238  12.191  0.00  0.00    +0.001 A 
ATOM      9  C   UNL     1     -34.251 -11.894  13.494  0.00  0.00    +0.017 A 
ATOM     10  C   UNL     1     -33.362 -12.114  14.561  0.00  0.00    +0.078 A 
BRANCH   5  11
ATOM     11  O   UNL     1     -31.264 -12.999  15.401  0.00  0.00    -0.489 OA
BRANCH  11  13
ATOM     12  C   UNL     1     -29.220 -14.263  15.761  0.00  0.00    +0.051 C 
ATOM     13  C   UNL     1     -30.752 -14.283  15.764  0.00  0.00    +0.167 C 
ATOM     14  C   UNL     1     -31.272 -14.636  17.156  0.00  0.00    +0.051 C 
ENDBRANCH  11  13
ENDBRANCH   5  11
ENDBRANCH   1  10
BRANCH   3  15
ATOM     15  C   UNL     1     -33.110 -11.057  18.304  0.00  0.00    +0.119 C 
BRANCH  15  16
ATOM     16  C   UNL     1     -31.873 -10.524  19.058  0.00  0.00    +0.118 C 
BRANCH  16  17
ATOM     17  C   UNL     1     -30.651 -11.486  18.966  0.00  0.00    +0.009 C 
ATOM     18  C   UNL     1     -30.174 -11.950  20.355  0.00  0.00    +0.032 C 
ATOM     19  C   UNL     1     -29.000 -12.952  20.228  0.00  0.00    +0.160 C 
ATOM     20  O   UNL     1     -28.425 -12.985  18.931  0.00  0.00    -0.380 OA
ATOM     21  C   UNL     1     -28.151 -11.672  18.486  0.00  0.00    +0.160 C 
ATOM     22  C   UNL     1     -29.455 -10.919  18.162  0.00  0.00    +0.032 C 
ENDBRANCH  16  17
BRANCH  16  23
ATOM     23  C   UNL     1     -31.543  -9.116  18.623  0.00  0.00    +0.310 C 
ATOM     24  O   UNL     1     -31.009  -8.299  19.422  0.00  0.00    -0.251 OA
BRANCH  23  25
ATOM     25  O   UNL     1     -31.852  -8.708  17.328  0.00  0.00    -0.480 OA
ATOM     26  H   UNL     1     -32.323  -9.332  16.684  0.00  0.00    +0.295 HD
ENDBRANCH  23  25
ENDBRANCH  16  23
ENDBRANCH  15  16
ENDBRANCH   3  15
TORSDOF 8
ENDMDL
MODEL 3
REMARK VINA RESULT:    -4.736      1.615      4.114
REMARK INTER + INTRA:          -9.247
REMARK INTER:                  -7.065
REMARK INTRA:                  -2.182
REMARK UNBOUND:                -2.435
REMARK  Name = 
REMARK  10 active torsions:
REMARK  status: ('A' for Active; 'I' for Inactive)
REMARK    1  A    between atoms: C_1  and  C_2
REMARK    2  A    between atoms: C_2  and  C_3
REMARK    3  A    between atoms: C_2  and  O_4
REMARK    4  A    between atoms: O_4  and  C_5
REMARK    5  A    between atoms: C_10  and  C_11
REMARK    6  A    between atoms: N_13  and  C_14
REMARK    7  A    between atoms: C_14  and  C_15
REMARK    8  A    between atoms: C_15  and  C_16
REMARK    9  A    between atoms: C_15  and  C_19
REMARK   10  A    between atoms: C_16  and  O_18
REMARK                            x       y       z     vdW  Elec       q    Type
REMARK                         _______ _______ _______ _____ _____    ______ ____
ROOT
ATOM      1  C   UNL     1     -29.431 -13.971  15.834  0.00  0.00    +0.248 C 
ATOM      2  O   UNL     1     -28.221 -14.310  15.940  0.00  0.00    -0.270 OA
ATOM      3  N   UNL     1     -30.172 -13.564  16.996  0.00  0.00    -0.310 N 
ATOM      4  H   UNL     1     -31.205 -13.433  16.920  0.00  0.00    +0.149 HD
ENDROOT
BRANCH   1  10
ATOM      5  C   UNL     1     -31.173 -13.203  14.178  0.00  0.00    +0.133 A 
ATOM      6  C   UNL     1     -31.777 -13.327  12.910  0.00  0.00    +0.046 A 
ATOM      7  C   UNL     1     -31.296 -14.254  11.983  0.00  0.00    +0.004 A 
ATOM      8  C   UNL     1     -30.206 -15.062  12.303  0.00  0.00    +0.001 A 
ATOM      9  C   UNL     1     -29.600 -14.956  13.555  0.00  0.00    +0.017 A 
ATOM     10  C   UNL     1     -30.084 -14.041  14.506  0.00  0.00    +0.078 A 
BRANCH   5  11
ATOM     11  O   UNL     1     -31.598 -12.242  15.113  0.00  0.00    -0.489 OA
BRANCH  11  13
ATOM     12  C   UNL     1     -33.406 -12.139  16.734  0.00  0.00    +0.051 C 
ATOM     13  C   UNL     1     -32.940 -11.796  15.315  0.00  0.00    +0.167 C 
ATOM     14  C   UNL     1     -32.985 -10.285  15.098  0.00  0.00    +0.051 C 
ENDBRANCH  11  13
ENDBRANCH   5  11
ENDBRANCH   1  10
BRANCH   3  15
ATOM     15  C   UNL     1     -29.555 -13.349  18.305  0.00  0.00    +0.119 C 
BRANCH  15  16
ATOM     16  C   UNL     1     -28.567 -12.164  18.258  0.00  0.00    +0.118 C 
BRANCH  16  17
ATOM     17  C   UNL     1     -29.187 -10.842  18.802  0.00  0.00    +0.009 C 
ATOM     18  C   UNL     1     -29.906 -11.051  20.149  0.00  0.00    +0.032 C 
ATOM     19  C   UNL     1     -30.456  -9.710  20.693  0.00  0.00    +0.160 C 
ATOM     20  O   UNL     1     -30.463  -8.670  19.726  0.00  0.00    -0.380 OA
ATOM     21  C   UNL     1     -31.054  -9.124  18.526  0.00  0.00    +0.160 C 
ATOM     22  C   UNL     1     -30.133 -10.127  17.807  0.00  0.00    +0.032 C 
ENDBRANCH  16  17
BRANCH  16  23
ATOM     23  C   UNL     1     -27.265 -12.522  18.934  0.00  0.00    +0.310 C 
ATOM     24  O   UNL     1     -26.350 -11.665  19.073  0.00  0.00    -0.251 OA
BRANCH  23  25
ATOM     25  O   UNL     1     -27.064 -13.822  19.392  0.00  0.00    -0.480 OA
ATOM     26  H   UNL     1     -27.724 -14.558  19.173  0.00  0.00    +0.295 HD
ENDBRANCH  23  25
ENDBRANCH  16  23
ENDBRANCH  15  16
ENDBRANCH   3  15
TORSDOF 8
ENDMDL
MODEL 4
REMARK VINA RESULT:    -4.514      1.653      3.472
REMARK INTER + INTRA:          -8.927
REMARK INTER:                  -7.213
REMARK INTRA:                  -1.714
REMARK UNBOUND:                -2.435
REMARK  Name = 
REMARK  10 active torsions:
REMARK  status: ('A' for Active; 'I' for Inactive)
REMARK    1  A    between atoms: C_1  and  C_2
REMARK    2  A    between atoms: C_2  and  C_3
REMARK    3  A    between atoms: C_2  and  O_4
REMARK    4  A    between atoms: O_4  and  C_5
REMARK    5  A    between atoms: C_10  and  C_11
REMARK    6  A    between atoms: N_13  and  C_14
REMARK    7  A    between atoms: C_14  and  C_15
REMARK    8  A    between atoms: C_15  and  C_16
REMARK    9  A    between atoms: C_15  and  C_19
REMARK   10  A    between atoms: C_16  and  O_18
REMARK                            x       y       z     vdW  Elec       q    Type
REMARK                         _______ _______ _______ _____ _____    ______ ____
ROOT
ATOM      1  C   UNL     1     -30.998 -13.791  16.361  0.00  0.00    +0.248 C 
ATOM      2  O   UNL     1     -31.784 -14.642  16.861  0.00  0.00    -0.270 OA
ATOM      3  N   UNL     1     -30.866 -12.491  16.958  0.00  0.00    -0.310 N 
ATOM      4  H   UNL     1     -30.333 -11.751  16.451  0.00  0.00    +0.149 HD
ENDROOT
BRANCH   1  10
ATOM      5  C   UNL     1     -30.853 -14.047  13.855  0.00  0.00    +0.133 A 
ATOM      6  C   UNL     1     -30.107 -14.413  12.716  0.00  0.00    +0.046 A 
ATOM      7  C   UNL     1     -28.785 -14.844  12.842  0.00  0.00    +0.004 A 
ATOM      8  C   UNL     1     -28.188 -14.909  14.100  0.00  0.00    +0.001 A 
ATOM      9  C   UNL     1     -28.913 -14.555  15.238  0.00  0.00    +0.017 A 
ATOM     10  C   UNL     1     -30.251 -14.138  15.130  0.00  0.00    +0.078 A 
BRANCH   5  11
ATOM     11  O   UNL     1     -32.168 -13.557  13.757  0.00  0.00    -0.489 OA
BRANCH  11  13
ATOM     12  C   UNL     1     -33.567 -12.758  11.938  0.00  0.00    +0.051 C 
ATOM     13  C   UNL     1     -32.583 -12.385  13.052  0.00  0.00    +0.167 C 
ATOM     14  C   UNL     1     -33.247 -11.433  14.044  0.00  0.00    +0.051 C 
ENDBRANCH  11  13
ENDBRANCH   5  11
ENDBRANCH   1  10
BRANCH   3  15
ATOM     15  C   UNL     1     -31.473 -12.132  18.241  0.00  0.00    +0.119 C 
BRANCH  15  16
ATOM     16  C   UNL     1     -30.416 -11.549  19.202  0.00  0.00    +0.118 C 
BRANCH  16  17
ATOM     17  C   UNL     1     -29.313 -12.582  19.583  0.00  0.00    +0.009 C 
ATOM     18  C   UNL     1     -29.226 -12.802  21.105  0.00  0.00    +0.032 C 
ATOM     19  C   UNL     1     -28.166 -13.878  21.446  0.00  0.00    +0.160 C 
ATOM     20  O   UNL     1     -27.309 -14.189  20.358  0.00  0.00    -0.380 OA
ATOM     21  C   UNL     1     -26.803 -13.003  19.781  0.00  0.00    +0.160 C 
ATOM     22  C   UNL     1     -27.909 -12.250  19.019  0.00  0.00    +0.032 C 
ENDBRANCH  16  17
BRANCH  16  23
ATOM     23  C   UNL     1     -29.848 -10.260  18.660  0.00  0.00    +0.310 C 
ATOM     24  O   UNL     1     -29.663 -10.103  17.422  0.00  0.00    -0.251 OA
BRANCH  23  25
ATOM     25  O   UNL     1     -29.504  -9.237  19.540  0.00  0.00    -0.480 OA
ATOM     26  H   UNL     1     -29.936  -8.324  19.470  0.00  0.00    +0.295 HD
ENDBRANCH  23  25
ENDBRANCH  16  23
ENDBRANCH  15  16
ENDBRANCH   3  15
TORSDOF 8
ENDMDL
MODEL 5
REMARK VINA RESULT:    -4.487      1.559      3.190
REMARK INTER + INTRA:          -8.889
REMARK INTER:                  -6.765
REMARK INTRA:                  -2.124
REMARK UNBOUND:                -2.435
REMARK  Name = 
REMARK  10 active torsions:
REMARK  status: ('A' for Active; 'I' for Inactive)
REMARK    1  A    between atoms: C_1  and  C_2
REMARK    2  A    between atoms: C_2  and  C_3
REMARK    3  A    between atoms: C_2  and  O_4
REMARK    4  A    between atoms: O_4  and  C_5
REMARK    5  A    between atoms: C_10  and  C_11
REMARK    6  A    between atoms: N_13  and  C_14
REMARK    7  A    between atoms: C_14  and  C_15
REMARK    8  A    between atoms: C_15  and  C_16
REMARK    9  A    between atoms: C_15  and  C_19
REMARK   10  A    between atoms: C_16  and  O_18
REMARK                            x       y       z     vdW  Elec       q    Type
REMARK                         _______ _______ _______ _____ _____    ______ ____
ROOT
ATOM      1  C   UNL     1     -30.609 -10.238  16.330  0.00  0.00    +0.248 C 
ATOM      2  O   UNL     1     -30.363  -9.001  16.358  0.00  0.00    -0.270 OA
ATOM      3  N   UNL     1     -29.794 -11.152  17.082  0.00  0.00    -0.310 N 
ATOM      4  H   UNL     1     -29.911 -12.179  16.932  0.00  0.00    +0.149 HD
ENDROOT
BRANCH   1  10
ATOM      5  C   UNL     1     -31.621 -11.965  14.795  0.00  0.00    +0.133 A 
ATOM      6  C   UNL     1     -32.693 -12.380  13.977  0.00  0.00    +0.046 A 
ATOM      7  C   UNL     1     -33.840 -11.593  13.860  0.00  0.00    +0.004 A 
ATOM      8  C   UNL     1     -33.939 -10.391  14.558  0.00  0.00    +0.001 A 
ATOM      9  C   UNL     1     -32.886  -9.963  15.367  0.00  0.00    +0.017 A 
ATOM     10  C   UNL     1     -31.716 -10.734  15.481  0.00  0.00    +0.078 A 
BRANCH   5  11
ATOM     11  O   UNL     1     -30.475 -12.759  14.979  0.00  0.00    -0.489 OA
BRANCH  11  13
ATOM     12  C   UNL     1     -29.014 -14.694  14.817  0.00  0.00    +0.051 C 
ATOM     13  C   UNL     1     -30.439 -14.186  15.057  0.00  0.00    +0.167 C 
ATOM     14  C   UNL     1     -30.922 -14.606  16.443  0.00  0.00    +0.051 C 
ENDBRANCH  11  13
ENDBRANCH   5  11
ENDBRANCH   1  10
BRANCH   3  15
ATOM     15  C   UNL     1     -28.774 -10.719  18.037  0.00  0.00    +0.119 C 
BRANCH  15  16
ATOM     16  C   UNL     1     -28.733 -11.661  19.260  0.00  0.00    +0.118 C 
BRANCH  16  17
ATOM     17  C   UNL     1     -30.008 -11.549  20.148  0.00  0.00    +0.009 C 
ATOM     18  C   UNL     1     -31.251 -12.137  19.454  0.00  0.00    +0.032 C 
ATOM     19  C   UNL     1     -32.487 -12.069  20.384  0.00  0.00    +0.160 C 
ATOM     20  O   UNL     1     -32.297 -11.224  21.509  0.00  0.00    -0.380 OA
ATOM     21  C   UNL     1     -31.777  -9.976  21.101  0.00  0.00    +0.160 C 
ATOM     22  C   UNL     1     -30.313 -10.115  20.645  0.00  0.00    +0.032 C 
ENDBRANCH  16  17
BRANCH  16  23
ATOM     23  C   UNL     1     -28.436 -13.080  18.837  0.00  0.00    +0.310 C 
ATOM     24  O   UNL     1     -27.967 -13.330  17.693  0.00  0.00    -0.251 OA
BRANCH  23  25
ATOM     25  O   UNL     1     -28.703 -14.128  19.714  0.00  0.00    -0.480 OA
ATOM     26  H   UNL     1     -29.656 -14.390  19.935  0.00  0.00    +0.295 HD
ENDBRANCH  23  25
ENDBRANCH  16  23
ENDBRANCH  15  16
ENDBRANCH   3  15
TORSDOF 8
ENDMDL
MODEL 6
REMARK VINA RESULT:    -4.461      1.412      2.056
REMARK INTER + INTRA:          -8.852
REMARK INTER:                  -7.130
REMARK INTRA:                  -1.722
REMARK UNBOUND:                -2.435
REMARK  Name = 
REMARK  10 active torsions:
REMARK  status: ('A' for Active; 'I' for Inactive)
REMARK    1  A    between atoms: C_1  and  C_2
REMARK    2  A    between atoms: C_2  and  C_3
REMARK    3  A    between atoms: C_2  and  O_4
REMARK    4  A    between atoms: O_4  and  C_5
REMARK    5  A    between atoms: C_10  and  C_11
REMARK    6  A    between atoms: N_13  and  C_14
REMARK    7  A    between atoms: C_14  and  C_15
REMARK    8  A    between atoms: C_15  and  C_16
REMARK    9  A    between atoms: C_15  and  C_19
REMARK   10  A    between atoms: C_16  and  O_18
REMARK                            x       y       z     vdW  Elec       q    Type
REMARK                         _______ _______ _______ _____ _____    ______ ____
ROOT
ATOM      1  C   UNL     1     -30.776 -10.380  16.223  0.00  0.00    +0.248 C 
ATOM      2  O   UNL     1     -30.581  -9.134  16.216  0.00  0.00    -0.270 OA
ATOM      3  N   UNL     1     -30.013 -11.225  17.100  0.00  0.00    -0.310 N 
ATOM      4  H   UNL     1     -30.076 -12.262  16.988  0.00  0.00    +0.149 HD
ENDROOT
BRANCH   1  10
ATOM      5  C   UNL     1     -31.522 -12.179  14.619  0.00  0.00    +0.133 A 
ATOM      6  C   UNL     1     -32.487 -12.674  13.717  0.00  0.00    +0.046 A 
ATOM      7  C   UNL     1     -33.678 -11.979  13.502  0.00  0.00    +0.004 A 
ATOM      8  C   UNL     1     -33.927 -10.789  14.183  0.00  0.00    +0.001 A 
ATOM      9  C   UNL     1     -32.981 -10.282  15.074  0.00  0.00    +0.017 A 
ATOM     10  C   UNL     1     -31.768 -10.959  15.288  0.00  0.00    +0.078 A 
BRANCH   5  11
ATOM     11  O   UNL     1     -30.336 -12.881  14.900  0.00  0.00    -0.489 OA
BRANCH  11  13
ATOM     12  C   UNL     1     -28.854 -14.794  14.677  0.00  0.00    +0.051 C 
ATOM     13  C   UNL     1     -30.223 -14.286  15.140  0.00  0.00    +0.167 C 
ATOM     14  C   UNL     1     -30.400 -14.537  16.636  0.00  0.00    +0.051 C 
ENDBRANCH  11  13
ENDBRANCH   5  11
ENDBRANCH   1  10
BRANCH   3  15
ATOM     15  C   UNL     1     -29.117 -10.708  18.134  0.00  0.00    +0.119 C 
BRANCH  15  16
ATOM     16  C   UNL     1     -29.591 -11.142  19.537  0.00  0.00    +0.118 C 
BRANCH  16  17
ATOM     17  C   UNL     1     -28.516 -11.966  20.307  0.00  0.00    +0.009 C 
ATOM     18  C   UNL     1     -27.450 -12.553  19.362  0.00  0.00    +0.032 C 
ATOM     19  C   UNL     1     -26.363 -13.313  20.161  0.00  0.00    +0.160 C 
ATOM     20  O   UNL     1     -26.733 -13.572  21.507  0.00  0.00    -0.380 OA
ATOM     21  C   UNL     1     -28.027 -14.137  21.558  0.00  0.00    +0.160 C 
ATOM     22  C   UNL     1     -29.097 -13.088  21.204  0.00  0.00    +0.032 C 
ENDBRANCH  16  17
BRANCH  16  23
ATOM     23  C   UNL     1     -30.095  -9.957  20.326  0.00  0.00    +0.310 C 
ATOM     24  O   UNL     1     -30.806 -10.119  21.355  0.00  0.00    -0.251 OA
BRANCH  23  25
ATOM     25  O   UNL     1     -29.788  -8.668  19.899  0.00  0.00    -0.480 OA
ATOM     26  H   UNL     1     -28.999  -8.497  19.288  0.00  0.00    +0.295 HD
ENDBRANCH  23  25
ENDBRANCH  16  23
ENDBRANCH  15  16
ENDBRANCH   3  15
TORSDOF 8
ENDMDL
MODEL 7
REMARK VINA RESULT:    -4.457      1.385      3.039
REMARK INTER + INTRA:          -8.846
REMARK INTER:                  -6.724
REMARK INTRA:                  -2.122
REMARK UNBOUND:                -2.435
REMARK  Name = 
REMARK  10 active torsions:
REMARK  status: ('A' for Active; 'I' for Inactive)
REMARK    1  A    between atoms: C_1  and  C_2
REMARK    2  A    between atoms: C_2  and  C_3
REMARK    3  A    between atoms: C_2  and  O_4
REMARK    4  A    between atoms: O_4  and  C_5
REMARK    5  A    between atoms: C_10  and  C_11
REMARK    6  A    between atoms: N_13  and  C_14
REMARK    7  A    between atoms: C_14  and  C_15
REMARK    8  A    between atoms: C_15  and  C_16
REMARK    9  A    between atoms: C_15  and  C_19
REMARK   10  A    between atoms: C_16  and  O_18
REMARK                            x       y       z     vdW  Elec       q    Type
REMARK                         _______ _______ _______ _____ _____    ______ ____
ROOT
ATOM      1  C   UNL     1     -31.157 -11.629  15.443  0.00  0.00    +0.248 C 
ATOM      2  O   UNL     1     -30.469 -12.589  15.887  0.00  0.00    -0.270 OA
ATOM      3  N   UNL     1     -31.018 -10.317  16.012  0.00  0.00    -0.310 N 
ATOM      4  H   UNL     1     -31.696  -9.571  15.741  0.00  0.00    +0.149 HD
ENDROOT
BRANCH   1  10
ATOM      5  C   UNL     1     -33.329 -11.137  14.259  0.00  0.00    +0.133 A 
ATOM      6  C   UNL     1     -34.241 -11.437  13.226  0.00  0.00    +0.046 A 
ATOM      7  C   UNL     1     -33.961 -12.449  12.305  0.00  0.00    +0.004 A 
ATOM      8  C   UNL     1     -32.770 -13.167  12.395  0.00  0.00    +0.001 A 
ATOM      9  C   UNL     1     -31.859 -12.887  13.414  0.00  0.00    +0.017 A 
ATOM     10  C   UNL     1     -32.135 -11.885  14.361  0.00  0.00    +0.078 A 
BRANCH   5  11
ATOM     11  O   UNL     1     -33.556 -10.089  15.169  0.00  0.00    -0.489 OA
BRANCH  11  13
ATOM     12  C   UNL     1     -34.451 -10.708  17.342  0.00  0.00    +0.051 C 
ATOM     13  C   UNL     1     -34.687  -9.950  16.032  0.00  0.00    +0.167 C 
ATOM     14  C   UNL     1     -34.899  -8.464  16.315  0.00  0.00    +0.051 C 
ENDBRANCH  11  13
ENDBRANCH   5  11
ENDBRANCH   1  10
BRANCH   3  15
ATOM     15  C   UNL     1     -29.983  -9.972  16.987  0.00  0.00    +0.119 C 
BRANCH  15  16
ATOM     16  C   UNL     1     -30.482 -10.224  18.427  0.00  0.00    +0.118 C 
BRANCH  16  17
ATOM     17  C   UNL     1     -29.483 -11.073  19.269  0.00  0.00    +0.009 C 
ATOM     18  C   UNL     1     -28.306 -11.592  18.421  0.00  0.00    +0.032 C 
ATOM     19  C   UNL     1     -27.301 -12.379  19.297  0.00  0.00    +0.160 C 
ATOM     20  O   UNL     1     -27.813 -12.717  20.577  0.00  0.00    -0.380 OA
ATOM     21  C   UNL     1     -29.093 -13.302  20.451  0.00  0.00    +0.160 C 
ATOM     22  C   UNL     1     -30.138 -12.250  20.034  0.00  0.00    +0.032 C 
ENDBRANCH  16  17
BRANCH  16  23
ATOM     23  C   UNL     1     -30.859  -8.926  19.101  0.00  0.00    +0.310 C 
ATOM     24  O   UNL     1     -31.947  -8.349  18.831  0.00  0.00    -0.251 OA
BRANCH  23  25
ATOM     25  O   UNL     1     -29.985  -8.349  20.018  0.00  0.00    -0.480 OA
ATOM     26  H   UNL     1     -30.298  -8.101  20.949  0.00  0.00    +0.295 HD
ENDBRANCH  23  25
ENDBRANCH  16  23
ENDBRANCH  15  16
ENDBRANCH   3  15
TORSDOF 8
ENDMDL
MODEL 8
REMARK VINA RESULT:    -4.427      1.668      3.430
REMARK INTER + INTRA:          -8.802
REMARK INTER:                  -6.183
REMARK INTRA:                  -2.619
REMARK UNBOUND:                -2.435
REMARK  Name = 
REMARK  10 active torsions:
REMARK  status: ('A' for Active; 'I' for Inactive)
REMARK    1  A    between atoms: C_1  and  C_2
REMARK    2  A    between atoms: C_2  and  C_3
REMARK    3  A    between atoms: C_2  and  O_4
REMARK    4  A    between atoms: O_4  and  C_5
REMARK    5  A    between atoms: C_10  and  C_11
REMARK    6  A    between atoms: N_13  and  C_14
REMARK    7  A    between atoms: C_14  and  C_15
REMARK    8  A    between atoms: C_15  and  C_16
REMARK    9  A    between atoms: C_15  and  C_19
REMARK   10  A    between atoms: C_16  and  O_18
REMARK                            x       y       z     vdW  Elec       q    Type
REMARK                         _______ _______ _______ _____ _____    ______ ____
ROOT
ATOM      1  C   UNL     1     -31.249 -13.438  14.818  0.00  0.00    +0.248 C 
ATOM      2  O   UNL     1     -30.182 -13.797  14.250  0.00  0.00    -0.270 OA
ATOM      3  N   UNL     1     -31.444 -13.693  16.218  0.00  0.00    -0.310 N 
ATOM      4  H   UNL     1     -32.386 -13.529  16.638  0.00  0.00    +0.149 HD
ENDROOT
BRANCH   1  10
ATOM      5  C   UNL     1     -33.056 -11.702  14.517  0.00  0.00    +0.133 A 
ATOM      6  C   UNL     1     -34.074 -11.139  13.720  0.00  0.00    +0.046 A 
ATOM      7  C   UNL     1     -34.331 -11.637  12.441  0.00  0.00    +0.004 A 
ATOM      8  C   UNL     1     -33.576 -12.695  11.938  0.00  0.00    +0.001 A 
ATOM      9  C   UNL     1     -32.569 -13.268  12.715  0.00  0.00    +0.017 A 
ATOM     10  C   UNL     1     -32.310 -12.791  14.012  0.00  0.00    +0.078 A 
BRANCH   5  11
ATOM     11  O   UNL     1     -32.735 -11.190  15.786  0.00  0.00    -0.489 OA
BRANCH  11  13
ATOM     12  C   UNL     1     -33.119  -9.308  17.275  0.00  0.00    +0.051 C 
ATOM     13  C   UNL     1     -32.331  -9.850  16.079  0.00  0.00    +0.167 C 
ATOM     14  C   UNL     1     -30.836  -9.853  16.391  0.00  0.00    +0.051 C 
ENDBRANCH  11  13
ENDBRANCH   5  11
ENDBRANCH   1  10
BRANCH   3  15
ATOM     15  C   UNL     1     -30.391 -14.207  17.094  0.00  0.00    +0.119 C 
BRANCH  15  16
ATOM     16  C   UNL     1     -30.551 -13.655  18.526  0.00  0.00    +0.118 C 
BRANCH  16  17
ATOM     17  C   UNL     1     -29.279 -12.909  19.030  0.00  0.00    +0.009 C 
ATOM     18  C   UNL     1     -28.387 -12.437  17.866  0.00  0.00    +0.032 C 
ATOM     19  C   UNL     1     -27.165 -11.646  18.395  0.00  0.00    +0.160 C 
ATOM     20  O   UNL     1     -26.962 -11.793  19.792  0.00  0.00    -0.380 OA
ATOM     21  C   UNL     1     -27.000 -13.159  20.150  0.00  0.00    +0.160 C 
ATOM     22  C   UNL     1     -28.433 -13.713  20.048  0.00  0.00    +0.032 C 
ENDBRANCH  16  17
BRANCH  16  23
ATOM     23  C   UNL     1     -31.804 -12.821  18.644  0.00  0.00    +0.310 C 
ATOM     24  O   UNL     1     -31.807 -11.746  19.304  0.00  0.00    -0.251 OA
BRANCH  23  25
ATOM     25  O   UNL     1     -32.978 -13.255  18.034  0.00  0.00    -0.480 OA
ATOM     26  H   UNL     1     -33.801 -13.471  18.583  0.00  0.00    +0.295 HD
ENDBRANCH  23  25
ENDBRANCH  16  23
ENDBRANCH  15  16
ENDBRANCH   3  15
TORSDOF 8
ENDMDL
