MODEL 1
REMARK VINA RESULT:    -4.532      0.000      0.000
REMARK INTER + INTRA:          -6.182
REMARK INTER:                  -5.592
REMARK INTRA:                  -0.589
REMARK UNBOUND:                -0.589
REMARK  Name = 
REMARK  7 active torsions:
REMARK  status: ('A' for Active; 'I' for Inactive)
REMARK    1  A    between atoms: C_1  and  C_2
REMARK    2  A    between atoms: C_5  and  C_6
REMARK    3  A    between atoms: C_6  and  N_7
REMARK    4  A    between atoms: N_7  and  C_8
REMARK    5  A    between atoms: N_7  and  S_9
REMARK    6  A    between atoms: S_9  and  C_12
REMARK    7  A    between atoms: C_19  and  C_20
REMARK                            x       y       z     vdW  Elec       q    Type
REMARK                         _______ _______ _______ _____ _____    ______ ____
ROOT
ATOM      1  N   UNL     1     -33.025 -10.084  16.637  0.00  0.00    -0.174 NA
ATOM      2  C   UNL     1     -33.779  -9.321  15.630  0.00  0.00    +0.132 C 
ENDROOT
BRANCH   1   3
ATOM      3  S   UNL     1     -33.381 -11.785  16.457  0.00  0.00    +0.061 S 
ATOM      4  O   UNL     1     -33.045 -12.507  17.732  0.00  0.00    -0.153 OA
ATOM      5  O   UNL     1     -34.853 -11.966  16.197  0.00  0.00    -0.153 OA
BRANCH   3   6
ATOM      6  C   UNL     1     -32.461 -12.491  15.126  0.00  0.00    +0.107 A 
ATOM      7  C   UNL     1     -32.832 -12.230  13.799  0.00  0.00    +0.028 A 
ATOM      8  C   UNL     1     -32.118 -12.807  12.744  0.00  0.00    +0.003 A 
ATOM      9  C   UNL     1     -31.031 -13.645  13.009  0.00  0.00    +0.015 A 
ATOM     10  C   UNL     1     -30.658 -13.908  14.332  0.00  0.00    +0.020 A 
ATOM     11 BR   UNL     1     -29.179 -15.062  14.694  0.00  0.00    -0.050 Br
ATOM     12  C   UNL     1     -31.371 -13.332  15.388  0.00  0.00    +0.043 A 
ENDBRANCH   3   6
ENDBRANCH   1   3
BRANCH   1  13
ATOM     13  C   UNL     1     -31.574  -9.865  16.493  0.00  0.00    +0.164 C 
BRANCH  13  18
ATOM     14  C   UNL     1     -33.176  -6.211  20.696  0.00  0.00    +0.053 C 
ATOM     15  C   UNL     1     -32.293  -7.310  20.214  0.00  0.00    +0.007 A 
ATOM     16  C   UNL     1     -32.332  -7.875  18.930  0.00  0.00    +0.104 A 
ATOM     17  N   UNL     1     -31.363  -8.802  18.776  0.00  0.00    -0.296 N 
ATOM     18  C   UNL     1     -30.940  -9.654  17.837  0.00  0.00    +0.062 A 
ATOM     19  C   UNL     1     -29.878 -10.357  18.409  0.00  0.00    +0.062 A 
ATOM     20  C   UNL     1     -29.112 -11.462  17.758  0.00  0.00    +0.067 C 
ATOM     21  N   UNL     1     -29.650  -9.934  19.686  0.00  0.00    -0.226 NA
ATOM     22  C   UNL     1     -30.592  -8.983  19.829  0.00  0.00    +0.178 A 
ATOM     23  S   UNL     1     -31.008  -7.998  21.121  0.00  0.00    -0.055 S 
ENDBRANCH  13  18
ENDBRANCH   1  13
TORSDOF 4
ENDMDL
MODEL 2
REMARK VINA RESULT:    -4.409      3.004      4.302
REMARK INTER + INTRA:          -6.029
REMARK INTER:                  -5.346
REMARK INTRA:                  -0.683
REMARK UNBOUND:                -0.589
REMARK  Name = 
REMARK  7 active torsions:
REMARK  status: ('A' for Active; 'I' for Inactive)
REMARK    1  A    between atoms: C_1  and  C_2
REMARK    2  A    between atoms: C_5  and  C_6
REMARK    3  A    between atoms: C_6  and  N_7
REMARK    4  A    between atoms: N_7  and  C_8
REMARK    5  A    between atoms: N_7  and  S_9
REMARK    6  A    between atoms: S_9  and  C_12
REMARK    7  A    between atoms: C_19  and  C_20
REMARK                            x       y       z     vdW  Elec       q    Type
REMARK                         _______ _______ _______ _____ _____    ______ ____
ROOT
ATOM      1  N   UNL     1     -30.578 -12.179  17.380  0.00  0.00    -0.174 NA
ATOM      2  C   UNL     1     -29.586 -11.252  17.946  0.00  0.00    +0.132 C 
ENDROOT
BRANCH   1   3
ATOM      3  S   UNL     1     -29.779 -13.658  16.903  0.00  0.00    +0.061 S 
ATOM      4  O   UNL     1     -28.311 -13.560  17.217  0.00  0.00    -0.153 OA
ATOM      5  O   UNL     1     -30.344 -14.810  17.689  0.00  0.00    -0.153 OA
BRANCH   3   6
ATOM      6  C   UNL     1     -29.987 -13.967  15.178  0.00  0.00    +0.107 A 
ATOM      7  C   UNL     1     -29.057 -14.760  14.489  0.00  0.00    +0.028 A 
ATOM      8  C   UNL     1     -29.209 -14.987  13.117  0.00  0.00    +0.003 A 
ATOM      9  C   UNL     1     -30.287 -14.424  12.429  0.00  0.00    +0.015 A 
ATOM     10  C   UNL     1     -31.217 -13.633  13.112  0.00  0.00    +0.020 A 
ATOM     11 BR   UNL     1     -32.685 -12.856  12.169  0.00  0.00    -0.050 Br
ATOM     12  C   UNL     1     -31.068 -13.405  14.484  0.00  0.00    +0.043 A 
ENDBRANCH   3   6
ENDBRANCH   1   3
BRANCH   1  13
ATOM     13  C   UNL     1     -31.639 -12.484  18.358  0.00  0.00    +0.164 C 
BRANCH  13  18
ATOM     14  C   UNL     1     -34.698 -10.011  14.102  0.00  0.00    +0.053 C 
ATOM     15  C   UNL     1     -34.375 -10.132  15.552  0.00  0.00    +0.007 A 
ATOM     16  C   UNL     1     -33.407 -10.991  16.096  0.00  0.00    +0.104 A 
ATOM     17  N   UNL     1     -33.301 -10.821  17.431  0.00  0.00    -0.296 N 
ATOM     18  C   UNL     1     -32.611 -11.344  18.449  0.00  0.00    +0.062 A 
ATOM     19  C   UNL     1     -33.063 -10.686  19.595  0.00  0.00    +0.062 A 
ATOM     20  C   UNL     1     -32.621 -10.967  20.993  0.00  0.00    +0.067 C 
ATOM     21  N   UNL     1     -34.017  -9.764  19.278  0.00  0.00    -0.226 NA
ATOM     22  C   UNL     1     -34.099  -9.906  17.942  0.00  0.00    +0.178 A 
ATOM     23  S   UNL     1     -35.062  -9.161  16.789  0.00  0.00    -0.055 S 
ENDBRANCH  13  18
ENDBRANCH   1  13
TORSDOF 4
ENDMDL
MODEL 3
REMARK VINA RESULT:    -4.354      2.293      3.482
REMARK INTER + INTRA:          -5.961
REMARK INTER:                  -5.143
REMARK INTRA:                  -0.818
REMARK UNBOUND:                -0.589
REMARK  Name = 
REMARK  7 active torsions:
REMARK  status: ('A' for Active; 'I' for Inactive)
REMARK    1  A    between atoms: C_1  and  C_2
REMARK    2  A    between atoms: C_5  and  C_6
REMARK    3  A    between atoms: C_6  and  N_7
REMARK    4  A    between atoms: N_7  and  C_8
REMARK    5  A    between atoms: N_7  and  S_9
REMARK    6  A    between atoms: S_9  and  C_12
REMARK    7  A    between atoms: C_19  and  C_20
REMARK                            x       y       z     vdW  Elec       q    Type
REMARK                         _______ _______ _______ _____ _____    ______ ____
ROOT
ATOM      1  N   UNL     1     -33.149 -10.626  17.532  0.00  0.00    -0.174 NA
ATOM      2  C   UNL     1     -34.614 -10.604  17.398  0.00  0.00    +0.132 C 
ENDROOT
BRANCH   1   3
ATOM      3  S   UNL     1     -32.426 -10.104  16.029  0.00  0.00    +0.061 S 
ATOM      4  O   UNL     1     -33.410  -9.262  15.263  0.00  0.00    -0.153 OA
ATOM      5  O   UNL     1     -31.219  -9.254  16.321  0.00  0.00    -0.153 OA
BRANCH   3   6
ATOM      6  C   UNL     1     -31.945 -11.485  15.040  0.00  0.00    +0.107 A 
ATOM      7  C   UNL     1     -32.601 -11.743  13.827  0.00  0.00    +0.028 A 
ATOM      8  C   UNL     1     -32.237 -12.850  13.054  0.00  0.00    +0.003 A 
ATOM      9  C   UNL     1     -31.218 -13.703  13.488  0.00  0.00    +0.015 A 
ATOM     10  C   UNL     1     -30.561 -13.449  14.697  0.00  0.00    +0.020 A 
ATOM     11 BR   UNL     1     -29.175 -14.620  15.294  0.00  0.00    -0.050 Br
ATOM     12  C   UNL     1     -30.923 -12.342  15.472  0.00  0.00    +0.043 A 
ENDBRANCH   3   6
ENDBRANCH   1   3
BRANCH   1  13
ATOM     13  C   UNL     1     -32.702  -9.745  18.627  0.00  0.00    +0.164 C 
BRANCH  13  18
ATOM     14  C   UNL     1     -27.292 -11.822  18.612  0.00  0.00    +0.053 C 
ATOM     15  C   UNL     1     -28.583 -11.599  19.323  0.00  0.00    +0.007 A 
ATOM     16  C   UNL     1     -29.714 -10.979  18.769  0.00  0.00    +0.104 A 
ATOM     17  N   UNL     1     -30.747 -10.987  19.638  0.00  0.00    -0.296 N 
ATOM     18  C   UNL     1     -32.007 -10.544  19.691  0.00  0.00    +0.062 A 
ATOM     19  C   UNL     1     -32.480 -10.885  20.960  0.00  0.00    +0.062 A 
ATOM     20  C   UNL     1     -33.828 -10.550  21.507  0.00  0.00    +0.067 C 
ATOM     21  N   UNL     1     -31.518 -11.538  21.674  0.00  0.00    -0.226 NA
ATOM     22  C   UNL     1     -30.498 -11.563  20.797  0.00  0.00    +0.178 A 
ATOM     23  S   UNL     1     -28.934 -12.159  20.907  0.00  0.00    -0.055 S 
ENDBRANCH  13  18
ENDBRANCH   1  13
TORSDOF 4
ENDMDL
MODEL 4
REMARK VINA RESULT:    -4.308      2.377      3.452
REMARK INTER + INTRA:          -5.905
REMARK INTER:                  -5.226
REMARK INTRA:                  -0.679
REMARK UNBOUND:                -0.589
REMARK  Name = 
REMARK  7 active torsions:
REMARK  status: ('A' for Active; 'I' for Inactive)
REMARK    1  A    between atoms: C_1  and  C_2
REMARK    2  A    between atoms: C_5  and  C_6
REMARK    3  A    between atoms: C_6  and  N_7
REMARK    4  A    between atoms: N_7  and  C_8
REMARK    5  A    between atoms: N_7  and  S_9
REMARK    6  A    between atoms: S_9  and  C_12
REMARK    7  A    between atoms: C_19  and  C_20
REMARK                            x       y       z     vdW  Elec       q    Type
REMARK                         _______ _______ _______ _____ _____    ______ ____
ROOT
ATOM      1  N   UNL     1     -30.045 -11.702  17.567  0.00  0.00    -0.174 NA
ATOM      2  C   UNL     1     -28.870 -10.851  17.808  0.00  0.00    +0.132 C 
ENDROOT
BRANCH   1   3
ATOM      3  S   UNL     1     -29.518 -13.337  17.251  0.00  0.00    +0.061 S 
ATOM      4  O   UNL     1     -28.046 -13.456  17.537  0.00  0.00    -0.153 OA
ATOM      5  O   UNL     1     -30.245 -14.285  18.166  0.00  0.00    -0.153 OA
BRANCH   3   6
ATOM      6  C   UNL     1     -29.825 -13.792  15.573  0.00  0.00    +0.107 A 
ATOM      7  C   UNL     1     -28.988 -14.718  14.932  0.00  0.00    +0.028 A 
ATOM      8  C   UNL     1     -29.216 -15.062  13.596  0.00  0.00    +0.003 A 
ATOM      9  C   UNL     1     -30.278 -14.484  12.895  0.00  0.00    +0.015 A 
ATOM     10  C   UNL     1     -31.115 -13.560  13.530  0.00  0.00    +0.020 A 
ATOM     11 BR   UNL     1     -32.561 -12.763  12.569  0.00  0.00    -0.050 Br
ATOM     12  C   UNL     1     -30.889 -13.215  14.867  0.00  0.00    +0.043 A 
ENDBRANCH   3   6
ENDBRANCH   1   3
BRANCH   1  13
ATOM     13  C   UNL     1     -30.955 -11.691  18.728  0.00  0.00    +0.164 C 
BRANCH  13  18
ATOM     14  C   UNL     1     -30.526  -6.502  21.271  0.00  0.00    +0.053 C 
ATOM     15  C   UNL     1     -31.234  -7.423  20.337  0.00  0.00    +0.007 A 
ATOM     16  C   UNL     1     -30.868  -8.754  20.082  0.00  0.00    +0.104 A 
ATOM     17  N   UNL     1     -31.744  -9.347  19.243  0.00  0.00    -0.296 N 
ATOM     18  C   UNL     1     -31.902 -10.530  18.642  0.00  0.00    +0.062 A 
ATOM     19  C   UNL     1     -33.050 -10.410  17.857  0.00  0.00    +0.062 A 
ATOM     20  C   UNL     1     -33.603 -11.462  16.953  0.00  0.00    +0.067 C 
ATOM     21  N   UNL     1     -33.593  -9.164  17.982  0.00  0.00    -0.226 NA
ATOM     22  C   UNL     1     -32.741  -8.582  18.847  0.00  0.00    +0.178 A 
ATOM     23  S   UNL     1     -32.679  -7.038  19.497  0.00  0.00    -0.055 S 
ENDBRANCH  13  18
ENDBRANCH   1  13
TORSDOF 4
ENDMDL
MODEL 5
REMARK VINA RESULT:    -4.203      2.922      6.151
REMARK INTER + INTRA:          -5.775
REMARK INTER:                  -4.622
REMARK INTRA:                  -1.152
REMARK UNBOUND:                -0.589
REMARK  Name = 
REMARK  7 active torsions:
REMARK  status: ('A' for Active; 'I' for Inactive)
REMARK    1  A    between atoms: C_1  and  C_2
REMARK    2  A    between atoms: C_5  and  C_6
REMARK    3  A    between atoms: C_6  and  N_7
REMARK    4  A    between atoms: N_7  and  C_8
REMARK    5  A    between atoms: N_7  and  S_9
REMARK    6  A    between atoms: S_9  and  C_12
REMARK    7  A    between atoms: C_19  and  C_20
REMARK                            x       y       z     vdW  Elec       q    Type
REMARK                         _______ _______ _______ _____ _____    ______ ____
ROOT
ATOM      1  N   UNL     1     -33.516  -9.990  15.416  0.00  0.00    -0.174 NA
ATOM      2  C   UNL     1     -34.373  -8.913  14.898  0.00  0.00    +0.132 C 
ENDROOT
BRANCH   1   3
ATOM      3  S   UNL     1     -33.377  -9.833  17.150  0.00  0.00    +0.061 S 
ATOM      4  O   UNL     1     -33.597  -8.398  17.545  0.00  0.00    -0.153 OA
ATOM      5  O   UNL     1     -34.440 -10.664  17.817  0.00  0.00    -0.153 OA
BRANCH   3   6
ATOM      6  C   UNL     1     -31.787 -10.355  17.712  0.00  0.00    +0.107 A 
ATOM      7  C   UNL     1     -30.627  -9.783  17.168  0.00  0.00    +0.028 A 
ATOM      8  C   UNL     1     -29.367 -10.212  17.596  0.00  0.00    +0.003 A 
ATOM      9  C   UNL     1     -29.259 -11.212  18.566  0.00  0.00    +0.015 A 
ATOM     10  C   UNL     1     -30.413 -11.785  19.111  0.00  0.00    +0.020 A 
ATOM     11 BR   UNL     1     -30.265 -13.159  20.430  0.00  0.00    -0.050 Br
ATOM     12  C   UNL     1     -31.675 -11.358  18.685  0.00  0.00    +0.043 A 
ENDBRANCH   3   6
ENDBRANCH   1   3
BRANCH   1  13
ATOM     13  C   UNL     1     -34.069 -11.316  15.082  0.00  0.00    +0.164 C 
BRANCH  13  18
ATOM     14  C   UNL     1     -29.216 -14.406  15.767  0.00  0.00    +0.053 C 
ATOM     15  C   UNL     1     -30.296 -13.885  14.882  0.00  0.00    +0.007 A 
ATOM     16  C   UNL     1     -31.349 -13.056  15.295  0.00  0.00    +0.104 A 
ATOM     17  N   UNL     1     -32.125 -12.698  14.249  0.00  0.00    -0.296 N 
ATOM     18  C   UNL     1     -33.233 -11.984  14.030  0.00  0.00    +0.062 A 
ATOM     19  C   UNL     1     -33.490 -12.086  12.661  0.00  0.00    +0.062 A 
ATOM     20  C   UNL     1     -34.660 -11.495  11.947  0.00  0.00    +0.067 C 
ATOM     21  N   UNL     1     -32.542 -12.852  12.048  0.00  0.00    -0.226 NA
ATOM     22  C   UNL     1     -31.746 -13.180  13.083  0.00  0.00    +0.178 A 
ATOM     23  S   UNL     1     -30.369 -14.131  13.185  0.00  0.00    -0.055 S 
ENDBRANCH  13  18
ENDBRANCH   1  13
TORSDOF 4
ENDMDL
MODEL 6
REMARK VINA RESULT:    -4.143      1.193      2.873
REMARK INTER + INTRA:          -5.701
REMARK INTER:                  -5.168
REMARK INTRA:                  -0.533
REMARK UNBOUND:                -0.589
REMARK  Name = 
REMARK  7 active torsions:
REMARK  status: ('A' for Active; 'I' for Inactive)
REMARK    1  A    between atoms: C_1  and  C_2
REMARK    2  A    between atoms: C_5  and  C_6
REMARK    3  A    between atoms: C_6  and  N_7
REMARK    4  A    between atoms: N_7  and  C_8
REMARK    5  A    between atoms: N_7  and  S_9
REMARK    6  A    between atoms: S_9  and  C_12
REMARK    7  A    between atoms: C_19  and  C_20
REMARK                            x       y       z     vdW  Elec       q    Type
REMARK                         _______ _______ _______ _____ _____    ______ ____
ROOT
ATOM      1  N   UNL     1     -33.228  -9.882  16.693  0.00  0.00    -0.174 NA
ATOM      2  C   UNL     1     -33.791  -9.181  15.528  0.00  0.00    +0.132 C 
ENDROOT
BRANCH   1   3
ATOM      3  S   UNL     1     -33.551 -11.594  16.546  0.00  0.00    +0.061 S 
ATOM      4  O   UNL     1     -33.235 -12.278  17.848  0.00  0.00    -0.153 OA
ATOM      5  O   UNL     1     -35.011 -11.806  16.254  0.00  0.00    -0.153 OA
BRANCH   3   6
ATOM      6  C   UNL     1     -32.584 -12.315  15.258  0.00  0.00    +0.107 A 
ATOM      7  C   UNL     1     -32.935 -12.110  13.916  0.00  0.00    +0.028 A 
ATOM      8  C   UNL     1     -32.184 -12.700  12.895  0.00  0.00    +0.003 A 
ATOM      9  C   UNL     1     -31.080 -13.497  13.209  0.00  0.00    +0.015 A 
ATOM     10  C   UNL     1     -30.725 -13.705  14.546  0.00  0.00    +0.020 A 
ATOM     11 BR   UNL     1     -29.222 -14.803  14.975  0.00  0.00    -0.050 Br
ATOM     12  C   UNL     1     -31.476 -13.116  15.569  0.00  0.00    +0.043 A 
ENDBRANCH   3   6
ENDBRANCH   1   3
BRANCH   1  13
ATOM     13  C   UNL     1     -31.774  -9.660  16.795  0.00  0.00    +0.164 C 
BRANCH  13  18
ATOM     14  C   UNL     1     -28.032 -13.219  19.424  0.00  0.00    +0.053 C 
ATOM     15  C   UNL     1     -28.921 -12.023  19.471  0.00  0.00    +0.007 A 
ATOM     16  C   UNL     1     -29.720 -11.568  18.411  0.00  0.00    +0.104 A 
ATOM     17  N   UNL     1     -30.462 -10.504  18.783  0.00  0.00    -0.296 N 
ATOM     18  C   UNL     1     -31.343  -9.663  18.233  0.00  0.00    +0.062 A 
ATOM     19  C   UNL     1     -31.679  -8.750  19.235  0.00  0.00    +0.062 A 
ATOM     20  C   UNL     1     -32.595  -7.582  19.080  0.00  0.00    +0.067 C 
ATOM     21  N   UNL     1     -31.012  -9.036  20.391  0.00  0.00    -0.226 NA
ATOM     22  C   UNL     1     -30.298 -10.119  20.033  0.00  0.00    +0.178 A 
ATOM     23  S   UNL     1     -29.194 -11.065  20.868  0.00  0.00    -0.055 S 
ENDBRANCH  13  18
ENDBRANCH   1  13
TORSDOF 4
ENDMDL
MODEL 7
REMARK VINA RESULT:    -4.056      2.949      5.373
REMARK INTER + INTRA:          -5.593
REMARK INTER:                  -4.858
REMARK INTRA:                  -0.735
REMARK UNBOUND:                -0.589
REMARK  Name = 
REMARK  7 active torsions:
REMARK  status: ('A' for Active; 'I' for Inactive)
REMARK    1  A    between atoms: C_1  and  C_2
REMARK    2  A    between atoms: C_5  and  C_6
REMARK    3  A    between atoms: C_6  and  N_7
REMARK    4  A    between atoms: N_7  and  C_8
REMARK    5  A    between atoms: N_7  and  S_9
REMARK    6  A    between atoms: S_9  and  C_12
REMARK    7  A    between atoms: C_19  and  C_20
REMARK                            x       y       z     vdW  Elec       q    Type
REMARK                         _______ _______ _______ _____ _____    ______ ____
ROOT
ATOM      1  N   UNL     1     -32.182 -11.219  17.876  0.00  0.00    -0.174 NA
ATOM      2  C   UNL     1     -32.431 -11.839  19.187  0.00  0.00    +0.132 C 
ENDROOT
BRANCH   1   3
ATOM      3  S   UNL     1     -33.198  -9.808  17.704  0.00  0.00    +0.061 S 
ATOM      4  O   UNL     1     -34.313  -9.865  18.712  0.00  0.00    -0.153 OA
ATOM      5  O   UNL     1     -32.388  -8.570  17.980  0.00  0.00    -0.153 OA
BRANCH   3   6
ATOM      6  C   UNL     1     -33.883  -9.711  16.081  0.00  0.00    +0.107 A 
ATOM      7  C   UNL     1     -34.488  -8.523  15.643  0.00  0.00    +0.028 A 
ATOM      8  C   UNL     1     -35.051  -8.452  14.365  0.00  0.00    +0.003 A 
ATOM      9  C   UNL     1     -35.014  -9.564  13.520  0.00  0.00    +0.015 A 
ATOM     10  C   UNL     1     -34.413 -10.751  13.952  0.00  0.00    +0.020 A 
ATOM     11 BR   UNL     1     -34.371 -12.274  12.800  0.00  0.00    -0.050 Br
ATOM     12  C   UNL     1     -33.848 -10.824  15.230  0.00  0.00    +0.043 A 
ENDBRANCH   3   6
ENDBRANCH   1   3
BRANCH   1  13
ATOM     13  C   UNL     1     -30.767 -10.831  17.732  0.00  0.00    +0.164 C 
BRANCH  13  18
ATOM     14  C   UNL     1     -30.942 -14.188  13.013  0.00  0.00    +0.053 C 
ATOM     15  C   UNL     1     -30.303 -13.822  14.309  0.00  0.00    +0.007 A 
ATOM     16  C   UNL     1     -30.744 -12.804  15.169  0.00  0.00    +0.104 A 
ATOM     17  N   UNL     1     -30.000 -12.761  16.294  0.00  0.00    -0.296 N 
ATOM     18  C   UNL     1     -29.924 -12.030  17.410  0.00  0.00    +0.062 A 
ATOM     19  C   UNL     1     -28.848 -12.547  18.134  0.00  0.00    +0.062 A 
ATOM     20  C   UNL     1     -28.337 -12.020  19.434  0.00  0.00    +0.067 C 
ATOM     21  N   UNL     1     -28.275 -13.591  17.468  0.00  0.00    -0.226 NA
ATOM     22  C   UNL     1     -29.039 -13.660  16.362  0.00  0.00    +0.178 A 
ATOM     23  S   UNL     1     -28.979 -14.655  15.014  0.00  0.00    -0.055 S 
ENDBRANCH  13  18
ENDBRANCH   1  13
TORSDOF 4
ENDMDL
MODEL 8
REMARK VINA RESULT:    -3.971      1.788      3.382
REMARK INTER + INTRA:          -5.489
REMARK INTER:                  -4.416
REMARK INTRA:                  -1.073
REMARK UNBOUND:                -0.589
REMARK  Name = 
REMARK  7 active torsions:
REMARK  status: ('A' for Active; 'I' for Inactive)
REMARK    1  A    between atoms: C_1  and  C_2
REMARK    2  A    between atoms: C_5  and  C_6
REMARK    3  A    between atoms: C_6  and  N_7
REMARK    4  A    between atoms: N_7  and  C_8
REMARK    5  A    between atoms: N_7  and  S_9
REMARK    6  A    between atoms: S_9  and  C_12
REMARK    7  A    between atoms: C_19  and  C_20
REMARK                            x       y       z     vdW  Elec       q    Type
REMARK                         _______ _______ _______ _____ _____    ______ ____
ROOT
ATOM      1  N   UNL     1     -33.442 -10.179  15.829  0.00  0.00    -0.174 NA
ATOM      2  C   UNL     1     -34.400  -9.270  15.181  0.00  0.00    +0.132 C 
ENDROOT
BRANCH   1   3
ATOM      3  S   UNL     1     -33.137 -11.540  14.777  0.00  0.00    +0.061 S 
ATOM      4  O   UNL     1     -34.442 -12.188  14.401  0.00  0.00    -0.153 OA
ATOM      5  O   UNL     1     -32.478 -11.060  13.512  0.00  0.00    -0.153 OA
BRANCH   3   6
ATOM      6  C   UNL     1     -32.099 -12.732  15.562  0.00  0.00    +0.107 A 
ATOM      7  C   UNL     1     -32.402 -13.184  16.855  0.00  0.00    +0.028 A 
ATOM      8  C   UNL     1     -31.568 -14.112  17.488  0.00  0.00    +0.003 A 
ATOM      9  C   UNL     1     -30.429 -14.591  16.834  0.00  0.00    +0.015 A 
ATOM     10  C   UNL     1     -30.123 -14.142  15.544  0.00  0.00    +0.020 A 
ATOM     11 BR   UNL     1     -28.562 -14.789  14.655  0.00  0.00    -0.050 Br
ATOM     12  C   UNL     1     -30.956 -13.215  14.910  0.00  0.00    +0.043 A 
ENDBRANCH   3   6
ENDBRANCH   1   3
BRANCH   1  13
ATOM     13  C   UNL     1     -32.173  -9.489  16.126  0.00  0.00    +0.164 C 
BRANCH  13  18
ATOM     14  C   UNL     1     -27.470 -11.850  18.552  0.00  0.00    +0.053 C 
ATOM     15  C   UNL     1     -28.752 -11.102  18.691  0.00  0.00    +0.007 A 
ATOM     16  C   UNL     1     -29.616 -10.777  17.634  0.00  0.00    +0.104 A 
ATOM     17  N   UNL     1     -30.727 -10.157  18.087  0.00  0.00    -0.296 N 
ATOM     18  C   UNL     1     -31.838  -9.611  17.584  0.00  0.00    +0.062 A 
ATOM     19  C   UNL     1     -32.543  -9.101  18.676  0.00  0.00    +0.062 A 
ATOM     20  C   UNL     1     -33.830  -8.349  18.608  0.00  0.00    +0.067 C 
ATOM     21  N   UNL     1     -31.870  -9.339  19.839  0.00  0.00    -0.226 NA
ATOM     22  C   UNL     1     -30.779  -9.990  19.393  0.00  0.00    +0.178 A 
ATOM     23  S   UNL     1     -29.433 -10.603  20.185  0.00  0.00    -0.055 S 
ENDBRANCH  13  18
ENDBRANCH   1  13
TORSDOF 4
ENDMDL
MODEL 9
REMARK VINA RESULT:    -3.826      2.614      5.925
REMARK INTER + INTRA:          -5.310
REMARK INTER:                  -4.274
REMARK INTRA:                  -1.036
REMARK UNBOUND:                -0.589
REMARK  Name = 
REMARK  7 active torsions:
REMARK  status: ('A' for Active; 'I' for Inactive)
REMARK    1  A    between atoms: C_1  and  C_2
REMARK    2  A    between atoms: C_5  and  C_6
REMARK    3  A    between atoms: C_6  and  N_7
REMARK    4  A    between atoms: N_7  and  C_8
REMARK    5  A    between atoms: N_7  and  S_9
REMARK    6  A    between atoms: S_9  and  C_12
REMARK    7  A    between atoms: C_19  and  C_20
REMARK                            x       y       z     vdW  Elec       q    Type
REMARK                         _______ _______ _______ _____ _____    ______ ____
ROOT
ATOM      1  N   UNL     1     -31.916  -9.281  18.736  0.00  0.00    -0.174 NA
ATOM      2  C   UNL     1     -32.455  -7.953  19.071  0.00  0.00    +0.132 C 
ENDROOT
BRANCH   1   3
ATOM      3  S   UNL     1     -31.174  -9.977  20.157  0.00  0.00    +0.061 S 
ATOM      4  O   UNL     1     -30.813  -8.883  21.124  0.00  0.00    -0.153 OA
ATOM      5  O   UNL     1     -32.156 -10.891  20.839  0.00  0.00    -0.153 OA
BRANCH   3   6
ATOM      6  C   UNL     1     -29.721 -10.886  19.736  0.00  0.00    +0.107 A 
ATOM      7  C   UNL     1     -28.986 -10.545  18.591  0.00  0.00    +0.028 A 
ATOM      8  C   UNL     1     -27.847 -11.278  18.244  0.00  0.00    +0.003 A 
ATOM      9  C   UNL     1     -27.438 -12.355  19.036  0.00  0.00    +0.015 A 
ATOM     10  C   UNL     1     -28.169 -12.699  20.179  0.00  0.00    +0.020 A 
ATOM     11 BR   UNL     1     -27.615 -14.176  21.256  0.00  0.00    -0.050 Br
ATOM     12  C   UNL     1     -29.308 -11.966  20.528  0.00  0.00    +0.043 A 
ENDBRANCH   3   6
ENDBRANCH   1   3
BRANCH   1  13
ATOM     13  C   UNL     1     -32.979 -10.177  18.244  0.00  0.00    +0.164 C 
BRANCH  13  18
ATOM     14  C   UNL     1     -29.975 -14.605  16.020  0.00  0.00    +0.053 C 
ATOM     15  C   UNL     1     -30.861 -13.422  15.823  0.00  0.00    +0.007 A 
ATOM     16  C   UNL     1     -31.333 -12.586  16.846  0.00  0.00    +0.104 A 
ATOM     17  N   UNL     1     -32.056 -11.563  16.344  0.00  0.00    -0.296 N 
ATOM     18  C   UNL     1     -32.751 -10.517  16.800  0.00  0.00    +0.062 A 
ATOM     19  C   UNL     1     -33.288  -9.893  15.672  0.00  0.00    +0.062 A 
ATOM     20  C   UNL     1     -34.189  -8.702  15.680  0.00  0.00    +0.067 C 
ATOM     21  N   UNL     1     -32.920 -10.551  14.535  0.00  0.00    -0.226 NA
ATOM     22  C   UNL     1     -32.168 -11.551  15.031  0.00  0.00    +0.178 A 
ATOM     23  S   UNL     1     -31.366 -12.826  14.295  0.00  0.00    -0.055 S 
ENDBRANCH  13  18
ENDBRANCH   1  13
TORSDOF 4
ENDMDL
