MODEL 1
REMARK VINA RESULT:    -5.315      0.000      0.000
REMARK INTER + INTRA:          -8.216
REMARK INTER:                  -7.335
REMARK INTRA:                  -0.881
REMARK UNBOUND:                -0.881
REMARK  Name = 
REMARK  7 active torsions:
REMARK  status: ('A' for Active; 'I' for Inactive)
REMARK    1  A    between atoms: C_2  and  O_3
REMARK    2  A    between atoms: C_2  and  C_4
REMARK    3  A    between atoms: C_9  and  C_10
REMARK    4  A    between atoms: N_12  and  C_13
REMARK    5  A    between atoms: C_17  and  O_19
REMARK    6  A    between atoms: O_19  and  C_20
REMARK    7  A    between atoms: C_20  and  C_21
REMARK                            x       y       z     vdW  Elec       q    Type
REMARK                         _______ _______ _______ _____ _____    ______ ____
ROOT
ATOM      1  C   UNL     1     -30.373 -13.588  18.407  0.00  0.00    +0.221 C 
ATOM      2  O   UNL     1     -31.602 -13.668  18.136  0.00  0.00    -0.275 OA
ATOM      3  N   UNL     1     -29.391 -13.974  17.433  0.00  0.00    -0.285 N 
ATOM      4  H   UNL     1     -28.436 -14.227  17.776  0.00  0.00    +0.155 HD
ENDROOT
BRANCH   1  10
ATOM      5  C   UNL     1     -28.749 -12.073  19.649  0.00  0.00    +0.113 C 
ATOM      6  C   UNL     1     -29.184 -10.786  18.923  0.00  0.00    +0.042 C 
ATOM      7  C   UNL     1     -30.480 -10.240  19.465  0.00  0.00    -0.030 C 
ATOM      8  C   UNL     1     -31.374 -11.002  20.119  0.00  0.00    -0.030 C 
ATOM      9  C   UNL     1     -31.084 -12.422  20.545  0.00  0.00    +0.040 C 
ATOM     10  C   UNL     1     -29.924 -13.072  19.760  0.00  0.00    +0.093 C 
BRANCH   5  12
ATOM     11  O   UNL     1     -26.892 -12.054  18.133  0.00  0.00    -0.251 OA
ATOM     12  C   UNL     1     -27.539 -12.699  19.002  0.00  0.00    +0.309 C 
BRANCH  12  13
ATOM     13  O   UNL     1     -27.102 -13.963  19.391  0.00  0.00    -0.480 OA
ATOM     14  H   UNL     1     -27.679 -14.557  19.974  0.00  0.00    +0.295 HD
ENDBRANCH  12  13
ENDBRANCH   5  12
ENDBRANCH   1  10
BRANCH   3  15
ATOM     15  C   UNL     1     -29.649 -14.073  16.020  0.00  0.00    +0.037 A 
ATOM     16  C   UNL     1     -28.767 -14.748  15.158  0.00  0.00    +0.023 A 
ATOM     17  C   UNL     1     -29.056 -14.850  13.795  0.00  0.00    +0.005 A 
ATOM     18  C   UNL     1     -30.232 -14.300  13.283  0.00  0.00    +0.046 A 
ATOM     19  C   UNL     1     -31.138 -13.651  14.129  0.00  0.00    +0.123 A 
ATOM     20  C   UNL     1     -30.842 -13.544  15.503  0.00  0.00    +0.069 A 
BRANCH  19  21
ATOM     21  O   UNL     1     -32.318 -13.134  13.573  0.00  0.00    -0.487 OA
BRANCH  21  22
ATOM     22  C   UNL     1     -32.621 -11.746  13.471  0.00  0.00    +0.266 C 
BRANCH  22  23
ATOM     23  C   UNL     1     -33.245 -11.282  14.755  0.00  0.00    +0.008 A 
ATOM     24  C   UNL     1     -32.629 -10.281  15.519  0.00  0.00    +0.010 A 
ATOM     25  C   UNL     1     -33.199  -9.877  16.727  0.00  0.00    +0.020 A 
ATOM     26  C   UNL     1     -34.376 -10.487  17.167  0.00  0.00    +0.111 A 
ATOM     27  N   UNL     1     -34.955 -11.466  16.421  0.00  0.00    -0.263 NA
ATOM     28  C   UNL     1     -34.419 -11.877  15.240  0.00  0.00    +0.117 A 
ENDBRANCH  22  23
ENDBRANCH  21  22
ENDBRANCH  19  21
ENDBRANCH   3  15
TORSDOF 7
ENDMDL
MODEL 2
REMARK VINA RESULT:    -4.716      2.180      4.781
REMARK INTER + INTRA:          -7.389
REMARK INTER:                  -6.881
REMARK INTRA:                  -0.508
REMARK UNBOUND:                -0.881
REMARK  Name = 
REMARK  7 active torsions:
REMARK  status: ('A' for Active; 'I' for Inactive)
REMARK    1  A    between atoms: C_2  and  O_3
REMARK    2  A    between atoms: C_2  and  C_4
REMARK    3  A    between atoms: C_9  and  C_10
REMARK    4  A    between atoms: N_12  and  C_13
REMARK    5  A    between atoms: C_17  and  O_19
REMARK    6  A    between atoms: O_19  and  C_20
REMARK    7  A    between atoms: C_20  and  C_21
REMARK                            x       y       z     vdW  Elec       q    Type
REMARK                         _______ _______ _______ _____ _____    ______ ____
ROOT
ATOM      1  C   UNL     1     -29.629 -10.806  17.979  0.00  0.00    +0.221 C 
ATOM      2  O   UNL     1     -29.290 -11.632  17.089  0.00  0.00    -0.275 OA
ATOM      3  N   UNL     1     -30.678  -9.859  17.724  0.00  0.00    -0.285 N 
ATOM      4  H   UNL     1     -30.706  -8.993  18.310  0.00  0.00    +0.155 HD
ENDROOT
BRANCH   1  10
ATOM      5  C   UNL     1     -29.929 -10.601  20.498  0.00  0.00    +0.113 C 
ATOM      6  C   UNL     1     -30.913 -11.782  20.612  0.00  0.00    +0.042 C 
ATOM      7  C   UNL     1     -30.209 -13.114  20.564  0.00  0.00    -0.030 C 
ATOM      8  C   UNL     1     -28.995 -13.275  20.009  0.00  0.00    -0.030 C 
ATOM      9  C   UNL     1     -28.138 -12.115  19.560  0.00  0.00    +0.040 C 
ATOM     10  C   UNL     1     -28.939 -10.815  19.329  0.00  0.00    +0.093 C 
BRANCH   5  12
ATOM     11  O   UNL     1     -31.903  -9.241  20.520  0.00  0.00    -0.251 OA
ATOM     12  C   UNL     1     -30.649  -9.281  20.389  0.00  0.00    +0.309 C 
BRANCH  12  13
ATOM     13  O   UNL     1     -29.938  -8.100  20.196  0.00  0.00    -0.480 OA
ATOM     14  H   UNL     1     -28.989  -8.116  19.839  0.00  0.00    +0.295 HD
ENDBRANCH  12  13
ENDBRANCH   5  12
ENDBRANCH   1  10
BRANCH   3  15
ATOM     15  C   UNL     1     -31.668 -10.007  16.690  0.00  0.00    +0.037 A 
ATOM     16  C   UNL     1     -32.892  -9.316  16.740  0.00  0.00    +0.023 A 
ATOM     17  C   UNL     1     -33.823  -9.460  15.708  0.00  0.00    +0.005 A 
ATOM     18  C   UNL     1     -33.537 -10.274  14.612  0.00  0.00    +0.046 A 
ATOM     19  C   UNL     1     -32.312 -10.945  14.528  0.00  0.00    +0.123 A 
ATOM     20  C   UNL     1     -31.377 -10.804  15.572  0.00  0.00    +0.069 A 
BRANCH  19  21
ATOM     21  O   UNL     1     -32.061 -11.735  13.395  0.00  0.00    -0.487 OA
BRANCH  21  22
ATOM     22  C   UNL     1     -32.261 -13.143  13.333  0.00  0.00    +0.266 C 
BRANCH  22  23
ATOM     23  C   UNL     1     -30.968 -13.840  13.638  0.00  0.00    +0.008 A 
ATOM     24  C   UNL     1     -30.684 -14.265  14.944  0.00  0.00    +0.010 A 
ATOM     25  C   UNL     1     -29.465 -14.884  15.227  0.00  0.00    +0.020 A 
ATOM     26  C   UNL     1     -28.535 -15.062  14.201  0.00  0.00    +0.111 A 
ATOM     27  N   UNL     1     -28.818 -14.633  12.941  0.00  0.00    -0.263 NA
ATOM     28  C   UNL     1     -29.999 -14.027  12.642  0.00  0.00    +0.117 A 
ENDBRANCH  22  23
ENDBRANCH  21  22
ENDBRANCH  19  21
ENDBRANCH   3  15
TORSDOF 7
ENDMDL
MODEL 3
REMARK VINA RESULT:    -4.416      1.592      2.506
REMARK INTER + INTRA:          -6.975
REMARK INTER:                  -6.591
REMARK INTRA:                  -0.383
REMARK UNBOUND:                -0.881
REMARK  Name = 
REMARK  7 active torsions:
REMARK  status: ('A' for Active; 'I' for Inactive)
REMARK    1  A    between atoms: C_2  and  O_3
REMARK    2  A    between atoms: C_2  and  C_4
REMARK    3  A    between atoms: C_9  and  C_10
REMARK    4  A    between atoms: N_12  and  C_13
REMARK    5  A    between atoms: C_17  and  O_19
REMARK    6  A    between atoms: O_19  and  C_20
REMARK    7  A    between atoms: C_20  and  C_21
REMARK                            x       y       z     vdW  Elec       q    Type
REMARK                         _______ _______ _______ _____ _____    ______ ____
ROOT
ATOM      1  C   UNL     1     -29.128 -11.630  17.885  0.00  0.00    +0.221 C 
ATOM      2  O   UNL     1     -29.479 -10.709  17.098  0.00  0.00    -0.275 OA
ATOM      3  N   UNL     1     -29.402 -13.002  17.560  0.00  0.00    -0.285 N 
ATOM      4  H   UNL     1     -29.423 -13.693  18.345  0.00  0.00    +0.155 HD
ENDROOT
BRANCH   1  10
ATOM      5  C   UNL     1     -29.374 -10.943  20.323  0.00  0.00    +0.113 C 
ATOM      6  C   UNL     1     -30.223 -12.166  20.721  0.00  0.00    +0.042 C 
ATOM      7  C   UNL     1     -29.382 -13.404  20.907  0.00  0.00    -0.030 C 
ATOM      8  C   UNL     1     -28.175 -13.556  20.336  0.00  0.00    -0.030 C 
ATOM      9  C   UNL     1     -27.460 -12.434  19.619  0.00  0.00    +0.040 C 
ATOM     10  C   UNL     1     -28.402 -11.294  19.173  0.00  0.00    +0.093 C 
BRANCH   5  12
ATOM     11  O   UNL     1     -31.383  -9.927  19.500  0.00  0.00    -0.251 OA
ATOM     12  C   UNL     1     -30.234  -9.751  19.987  0.00  0.00    +0.309 C 
BRANCH  12  13
ATOM     13  O   UNL     1     -29.789  -8.459  20.257  0.00  0.00    -0.480 OA
ATOM     14  H   UNL     1     -28.879  -8.298  20.671  0.00  0.00    +0.295 HD
ENDBRANCH  12  13
ENDBRANCH   5  12
ENDBRANCH   1  10
BRANCH   3  15
ATOM     15  C   UNL     1     -29.688 -13.477  16.233  0.00  0.00    +0.037 A 
ATOM     16  C   UNL     1     -28.819 -14.358  15.565  0.00  0.00    +0.023 A 
ATOM     17  C   UNL     1     -29.136 -14.824  14.286  0.00  0.00    +0.005 A 
ATOM     18  C   UNL     1     -30.326 -14.434  13.672  0.00  0.00    +0.046 A 
ATOM     19  C   UNL     1     -31.220 -13.583  14.332  0.00  0.00    +0.123 A 
ATOM     20  C   UNL     1     -30.896 -13.110  15.619  0.00  0.00    +0.069 A 
BRANCH  19  21
ATOM     21  O   UNL     1     -32.414 -13.237  13.682  0.00  0.00    -0.487 OA
BRANCH  21  22
ATOM     22  C   UNL     1     -32.814 -11.903  13.386  0.00  0.00    +0.266 C 
BRANCH  22  23
ATOM     23  C   UNL     1     -33.442 -11.294  14.606  0.00  0.00    +0.008 A 
ATOM     24  C   UNL     1     -32.916 -10.118  15.159  0.00  0.00    +0.010 A 
ATOM     25  C   UNL     1     -33.485  -9.574  16.312  0.00  0.00    +0.020 A 
ATOM     26  C   UNL     1     -34.571 -10.219  16.908  0.00  0.00    +0.111 A 
ATOM     27  N   UNL     1     -35.062 -11.367  16.367  0.00  0.00    -0.263 NA
ATOM     28  C   UNL     1     -34.524 -11.916  15.245  0.00  0.00    +0.117 A 
ENDBRANCH  22  23
ENDBRANCH  21  22
ENDBRANCH  19  21
ENDBRANCH   3  15
TORSDOF 7
ENDMDL
MODEL 4
REMARK VINA RESULT:    -4.293      2.611      7.392
REMARK INTER + INTRA:          -6.806
REMARK INTER:                  -5.907
REMARK INTRA:                  -0.899
REMARK UNBOUND:                -0.881
REMARK  Name = 
REMARK  7 active torsions:
REMARK  status: ('A' for Active; 'I' for Inactive)
REMARK    1  A    between atoms: C_2  and  O_3
REMARK    2  A    between atoms: C_2  and  C_4
REMARK    3  A    between atoms: C_9  and  C_10
REMARK    4  A    between atoms: N_12  and  C_13
REMARK    5  A    between atoms: C_17  and  O_19
REMARK    6  A    between atoms: O_19  and  C_20
REMARK    7  A    between atoms: C_20  and  C_21
REMARK                            x       y       z     vdW  Elec       q    Type
REMARK                         _______ _______ _______ _____ _____    ______ ____
ROOT
ATOM      1  C   UNL     1     -32.379  -9.435  17.298  0.00  0.00    +0.221 C 
ATOM      2  O   UNL     1     -33.406  -9.339  18.025  0.00  0.00    -0.275 OA
ATOM      3  N   UNL     1     -31.072  -9.280  17.872  0.00  0.00    -0.285 N 
ATOM      4  H   UNL     1     -30.287  -9.022  17.231  0.00  0.00    +0.155 HD
ENDROOT
BRANCH   1  10
ATOM      5  C   UNL     1     -32.551 -11.244  15.517  0.00  0.00    +0.113 C 
ATOM      6  C   UNL     1     -33.812 -11.899  16.112  0.00  0.00    +0.042 C 
ATOM      7  C   UNL     1     -35.062 -11.124  15.784  0.00  0.00    -0.030 C 
ATOM      8  C   UNL     1     -35.046  -9.819  15.465  0.00  0.00    -0.030 C 
ATOM      9  C   UNL     1     -33.769  -9.053  15.211  0.00  0.00    +0.040 C 
ATOM     10  C   UNL     1     -32.520  -9.728  15.818  0.00  0.00    +0.093 C 
BRANCH   5  12
ATOM     11  O   UNL     1     -31.287 -13.184  16.138  0.00  0.00    -0.251 OA
ATOM     12  C   UNL     1     -31.291 -11.934  15.977  0.00  0.00    +0.309 C 
BRANCH  12  13
ATOM     13  O   UNL     1     -30.119 -11.209  16.177  0.00  0.00    -0.480 OA
ATOM     14  H   UNL     1     -30.071 -10.483  16.883  0.00  0.00    +0.295 HD
ENDBRANCH  12  13
ENDBRANCH   5  12
ENDBRANCH   1  10
BRANCH   3  15
ATOM     15  C   UNL     1     -30.782  -9.419  19.274  0.00  0.00    +0.037 A 
ATOM     16  C   UNL     1     -30.982  -8.358  20.175  0.00  0.00    +0.023 A 
ATOM     17  C   UNL     1     -30.716  -8.530  21.536  0.00  0.00    +0.005 A 
ATOM     18  C   UNL     1     -30.269  -9.763  22.013  0.00  0.00    +0.046 A 
ATOM     19  C   UNL     1     -30.094 -10.841  21.139  0.00  0.00    +0.123 A 
ATOM     20  C   UNL     1     -30.357 -10.663  19.766  0.00  0.00    +0.069 A 
BRANCH  19  21
ATOM     21  O   UNL     1     -29.664 -12.067  21.669  0.00  0.00    -0.487 OA
BRANCH  21  22
ATOM     22  C   UNL     1     -29.467 -13.252  20.906  0.00  0.00    +0.266 C 
BRANCH  22  23
ATOM     23  C   UNL     1     -27.998 -13.549  20.826  0.00  0.00    +0.008 A 
ATOM     24  C   UNL     1     -27.374 -14.307  21.827  0.00  0.00    +0.010 A 
ATOM     25  C   UNL     1     -26.001 -14.552  21.763  0.00  0.00    +0.020 A 
ATOM     26  C   UNL     1     -25.262 -14.027  20.701  0.00  0.00    +0.111 A 
ATOM     27  N   UNL     1     -25.879 -13.283  19.743  0.00  0.00    -0.263 NA
ATOM     28  C   UNL     1     -27.215 -13.030  19.785  0.00  0.00    +0.117 A 
ENDBRANCH  22  23
ENDBRANCH  21  22
ENDBRANCH  19  21
ENDBRANCH   3  15
TORSDOF 7
ENDMDL
MODEL 5
REMARK VINA RESULT:    -4.290      2.640      4.974
REMARK INTER + INTRA:          -6.802
REMARK INTER:                  -5.935
REMARK INTRA:                  -0.866
REMARK UNBOUND:                -0.881
REMARK  Name = 
REMARK  7 active torsions:
REMARK  status: ('A' for Active; 'I' for Inactive)
REMARK    1  A    between atoms: C_2  and  O_3
REMARK    2  A    between atoms: C_2  and  C_4
REMARK    3  A    between atoms: C_9  and  C_10
REMARK    4  A    between atoms: N_12  and  C_13
REMARK    5  A    between atoms: C_17  and  O_19
REMARK    6  A    between atoms: O_19  and  C_20
REMARK    7  A    between atoms: C_20  and  C_21
REMARK                            x       y       z     vdW  Elec       q    Type
REMARK                         _______ _______ _______ _____ _____    ______ ____
ROOT
ATOM      1  C   UNL     1     -29.767 -10.089  18.506  0.00  0.00    +0.221 C 
ATOM      2  O   UNL     1     -29.594  -9.782  17.295  0.00  0.00    -0.275 OA
ATOM      3  N   UNL     1     -30.925  -9.618  19.213  0.00  0.00    -0.285 N 
ATOM      4  H   UNL     1     -30.878  -9.585  20.257  0.00  0.00    +0.155 HD
ENDROOT
BRANCH   1  10
ATOM      5  C   UNL     1     -29.418 -11.882  20.278  0.00  0.00    +0.113 C 
ATOM      6  C   UNL     1     -30.353 -12.910  19.613  0.00  0.00    +0.042 C 
ATOM      7  C   UNL     1     -29.697 -13.601  18.445  0.00  0.00    -0.030 C 
ATOM      8  C   UNL     1     -28.665 -13.066  17.770  0.00  0.00    -0.030 C 
ATOM      9  C   UNL     1     -27.938 -11.825  18.232  0.00  0.00    +0.040 C 
ATOM     10  C   UNL     1     -28.758 -10.967  19.220  0.00  0.00    +0.093 C 
BRANCH   5  12
ATOM     11  O   UNL     1     -31.270 -11.449  21.737  0.00  0.00    -0.251 OA
ATOM     12  C   UNL     1     -30.129 -11.086  21.343  0.00  0.00    +0.309 C 
BRANCH  12  13
ATOM     13  O   UNL     1     -29.516  -9.982  21.930  0.00  0.00    -0.480 OA
ATOM     14  H   UNL     1     -29.869  -9.045  21.773  0.00  0.00    +0.295 HD
ENDBRANCH  12  13
ENDBRANCH   5  12
ENDBRANCH   1  10
BRANCH   3  15
ATOM     15  C   UNL     1     -32.128  -9.153  18.575  0.00  0.00    +0.037 A 
ATOM     16  C   UNL     1     -32.770  -7.972  18.989  0.00  0.00    +0.023 A 
ATOM     17  C   UNL     1     -33.922  -7.531  18.333  0.00  0.00    +0.005 A 
ATOM     18  C   UNL     1     -34.433  -8.249  17.251  0.00  0.00    +0.046 A 
ATOM     19  C   UNL     1     -33.792  -9.409  16.803  0.00  0.00    +0.123 A 
ATOM     20  C   UNL     1     -32.633  -9.856  17.470  0.00  0.00    +0.069 A 
BRANCH  19  21
ATOM     21  O   UNL     1     -34.330 -10.084  15.698  0.00  0.00    -0.487 OA
BRANCH  21  22
ATOM     22  C   UNL     1     -34.441 -11.500  15.592  0.00  0.00    +0.266 C 
BRANCH  22  23
ATOM     23  C   UNL     1     -33.786 -11.952  14.319  0.00  0.00    +0.008 A 
ATOM     24  C   UNL     1     -32.449 -12.375  14.322  0.00  0.00    +0.010 A 
ATOM     25  C   UNL     1     -31.838 -12.765  13.129  0.00  0.00    +0.020 A 
ATOM     26  C   UNL     1     -32.568 -12.716  11.940  0.00  0.00    +0.111 A 
ATOM     27  N   UNL     1     -33.860 -12.291  11.950  0.00  0.00    -0.263 NA
ATOM     28  C   UNL     1     -34.477 -11.907  13.099  0.00  0.00    +0.117 A 
ENDBRANCH  22  23
ENDBRANCH  21  22
ENDBRANCH  19  21
ENDBRANCH   3  15
TORSDOF 7
ENDMDL
MODEL 6
REMARK VINA RESULT:    -4.280      2.371      4.620
REMARK INTER + INTRA:          -6.788
REMARK INTER:                  -5.770
REMARK INTRA:                  -1.018
REMARK UNBOUND:                -0.881
REMARK  Name = 
REMARK  7 active torsions:
REMARK  status: ('A' for Active; 'I' for Inactive)
REMARK    1  A    between atoms: C_2  and  O_3
REMARK    2  A    between atoms: C_2  and  C_4
REMARK    3  A    between atoms: C_9  and  C_10
REMARK    4  A    between atoms: N_12  and  C_13
REMARK    5  A    between atoms: C_17  and  O_19
REMARK    6  A    between atoms: O_19  and  C_20
REMARK    7  A    between atoms: C_20  and  C_21
REMARK                            x       y       z     vdW  Elec       q    Type
REMARK                         _______ _______ _______ _____ _____    ______ ____
ROOT
ATOM      1  C   UNL     1     -31.166 -11.917  19.497  0.00  0.00    +0.221 C 
ATOM      2  O   UNL     1     -30.561 -10.815  19.386  0.00  0.00    -0.275 OA
ATOM      3  N   UNL     1     -32.591 -11.978  19.332  0.00  0.00    -0.285 N 
ATOM      4  H   UNL     1     -33.096 -12.791  19.755  0.00  0.00    +0.155 HD
ENDROOT
BRANCH   1  10
ATOM      5  C   UNL     1     -29.757 -13.798  18.521  0.00  0.00    +0.113 C 
ATOM      6  C   UNL     1     -28.676 -12.866  17.938  0.00  0.00    +0.042 C 
ATOM      7  C   UNL     1     -27.719 -12.377  18.995  0.00  0.00    -0.030 C 
ATOM      8  C   UNL     1     -28.036 -12.337  20.301  0.00  0.00    -0.030 C 
ATOM      9  C   UNL     1     -29.296 -12.957  20.858  0.00  0.00    +0.040 C 
ATOM     10  C   UNL     1     -30.389 -13.185  19.792  0.00  0.00    +0.093 C 
BRANCH   5  12
ATOM     11  O   UNL     1     -30.474 -14.244  16.278  0.00  0.00    -0.251 OA
ATOM     12  C   UNL     1     -30.799 -14.158  17.493  0.00  0.00    +0.309 C 
BRANCH  12  13
ATOM     13  O   UNL     1     -32.106 -14.445  17.879  0.00  0.00    -0.480 OA
ATOM     14  H   UNL     1     -32.506 -14.028  18.712  0.00  0.00    +0.295 HD
ENDBRANCH  12  13
ENDBRANCH   5  12
ENDBRANCH   1  10
BRANCH   3  15
ATOM     15  C   UNL     1     -33.372 -10.976  18.656  0.00  0.00    +0.037 A 
ATOM     16  C   UNL     1     -33.619  -9.720  19.240  0.00  0.00    +0.023 A 
ATOM     17  C   UNL     1     -34.358  -8.757  18.550  0.00  0.00    +0.005 A 
ATOM     18  C   UNL     1     -34.839  -9.026  17.268  0.00  0.00    +0.046 A 
ATOM     19  C   UNL     1     -34.577 -10.257  16.656  0.00  0.00    +0.123 A 
ATOM     20  C   UNL     1     -33.837 -11.230  17.357  0.00  0.00    +0.069 A 
BRANCH  19  21
ATOM     21  O   UNL     1     -35.062 -10.473  15.357  0.00  0.00    -0.487 OA
BRANCH  21  22
ATOM     22  C   UNL     1     -34.378 -10.096  14.167  0.00  0.00    +0.266 C 
BRANCH  22  23
ATOM     23  C   UNL     1     -33.826 -11.324  13.505  0.00  0.00    +0.008 A 
ATOM     24  C   UNL     1     -32.523 -11.758  13.791  0.00  0.00    +0.010 A 
ATOM     25  C   UNL     1     -32.005 -12.883  13.148  0.00  0.00    +0.020 A 
ATOM     26  C   UNL     1     -32.793 -13.560  12.215  0.00  0.00    +0.111 A 
ATOM     27  N   UNL     1     -34.050 -13.121  11.938  0.00  0.00    -0.263 NA
ATOM     28  C   UNL     1     -34.577 -12.027  12.551  0.00  0.00    +0.117 A 
ENDBRANCH  22  23
ENDBRANCH  21  22
ENDBRANCH  19  21
ENDBRANCH   3  15
TORSDOF 7
ENDMDL
MODEL 7
REMARK VINA RESULT:    -4.239      2.570      5.116
REMARK INTER + INTRA:          -6.731
REMARK INTER:                  -5.504
REMARK INTRA:                  -1.227
REMARK UNBOUND:                -0.881
REMARK  Name = 
REMARK  7 active torsions:
REMARK  status: ('A' for Active; 'I' for Inactive)
REMARK    1  A    between atoms: C_2  and  O_3
REMARK    2  A    between atoms: C_2  and  C_4
REMARK    3  A    between atoms: C_9  and  C_10
REMARK    4  A    between atoms: N_12  and  C_13
REMARK    5  A    between atoms: C_17  and  O_19
REMARK    6  A    between atoms: O_19  and  C_20
REMARK    7  A    between atoms: C_20  and  C_21
REMARK                            x       y       z     vdW  Elec       q    Type
REMARK                         _______ _______ _______ _____ _____    ______ ____
ROOT
ATOM      1  C   UNL     1     -30.234 -12.371  20.646  0.00  0.00    +0.221 C 
ATOM      2  O   UNL     1     -29.665 -11.390  21.198  0.00  0.00    -0.275 OA
ATOM      3  N   UNL     1     -31.666 -12.423  20.564  0.00  0.00    -0.285 N 
ATOM      4  H   UNL     1     -32.113 -13.359  20.429  0.00  0.00    +0.155 HD
ENDROOT
BRANCH   1  10
ATOM      5  C   UNL     1     -29.521 -13.560  18.512  0.00  0.00    +0.113 C 
ATOM      6  C   UNL     1     -28.907 -12.307  17.859  0.00  0.00    +0.042 C 
ATOM      7  C   UNL     1     -27.544 -11.987  18.418  0.00  0.00    -0.030 C 
ATOM      8  C   UNL     1     -27.138 -12.406  19.629  0.00  0.00    -0.030 C 
ATOM      9  C   UNL     1     -27.921 -13.396  20.459  0.00  0.00    +0.040 C 
ATOM     10  C   UNL     1     -29.407 -13.495  20.053  0.00  0.00    +0.093 C 
BRANCH   5  12
ATOM     11  O   UNL     1     -31.621 -12.816  17.626  0.00  0.00    -0.251 OA
ATOM     12  C   UNL     1     -30.943 -13.785  18.063  0.00  0.00    +0.309 C 
BRANCH  12  13
ATOM     13  O   UNL     1     -31.498 -15.062  18.080  0.00  0.00    -0.480 OA
ATOM     14  H   UNL     1     -30.985 -15.857  17.716  0.00  0.00    +0.295 HD
ENDBRANCH  12  13
ENDBRANCH   5  12
ENDBRANCH   1  10
BRANCH   3  15
ATOM     15  C   UNL     1     -32.526 -11.276  20.696  0.00  0.00    +0.037 A 
ATOM     16  C   UNL     1     -33.151 -10.962  21.916  0.00  0.00    +0.023 A 
ATOM     17  C   UNL     1     -33.960  -9.828  22.020  0.00  0.00    +0.005 A 
ATOM     18  C   UNL     1     -34.138  -8.988  20.920  0.00  0.00    +0.046 A 
ATOM     19  C   UNL     1     -33.500  -9.265  19.706  0.00  0.00    +0.123 A 
ATOM     20  C   UNL     1     -32.689 -10.413  19.601  0.00  0.00    +0.069 A 
BRANCH  19  21
ATOM     21  O   UNL     1     -33.691  -8.379  18.635  0.00  0.00    -0.487 OA
BRANCH  21  22
ATOM     22  C   UNL     1     -34.687  -8.532  17.629  0.00  0.00    +0.266 C 
BRANCH  22  23
ATOM     23  C   UNL     1     -34.280  -9.635  16.696  0.00  0.00    +0.008 A 
ATOM     24  C   UNL     1     -33.135  -9.500  15.897  0.00  0.00    +0.010 A 
ATOM     25  C   UNL     1     -32.781 -10.517  15.009  0.00  0.00    +0.020 A 
ATOM     26  C   UNL     1     -33.582 -11.657  14.920  0.00  0.00    +0.111 A 
ATOM     27  N   UNL     1     -34.696 -11.769  15.692  0.00  0.00    -0.263 NA
ATOM     28  C   UNL     1     -35.062 -10.792  16.564  0.00  0.00    +0.117 A 
ENDBRANCH  22  23
ENDBRANCH  21  22
ENDBRANCH  19  21
ENDBRANCH   3  15
TORSDOF 7
ENDMDL
MODEL 8
REMARK VINA RESULT:    -4.127      1.996      6.082
REMARK INTER + INTRA:          -6.577
REMARK INTER:                  -5.971
REMARK INTRA:                  -0.606
REMARK UNBOUND:                -0.881
REMARK  Name = 
REMARK  7 active torsions:
REMARK  status: ('A' for Active; 'I' for Inactive)
REMARK    1  A    between atoms: C_2  and  O_3
REMARK    2  A    between atoms: C_2  and  C_4
REMARK    3  A    between atoms: C_9  and  C_10
REMARK    4  A    between atoms: N_12  and  C_13
REMARK    5  A    between atoms: C_17  and  O_19
REMARK    6  A    between atoms: O_19  and  C_20
REMARK    7  A    between atoms: C_20  and  C_21
REMARK                            x       y       z     vdW  Elec       q    Type
REMARK                         _______ _______ _______ _____ _____    ______ ____
ROOT
ATOM      1  C   UNL     1     -32.883 -11.786  14.781  0.00  0.00    +0.221 C 
ATOM      2  O   UNL     1     -32.083 -10.908  14.358  0.00  0.00    -0.275 OA
ATOM      3  N   UNL     1     -32.476 -13.161  14.850  0.00  0.00    -0.285 N 
ATOM      4  H   UNL     1     -33.225 -13.891  14.865  0.00  0.00    +0.155 HD
ENDROOT
BRANCH   1  10
ATOM      5  C   UNL     1     -34.261 -10.530  16.513  0.00  0.00    +0.113 C 
ATOM      6  C   UNL     1     -33.590  -9.167  16.254  0.00  0.00    +0.042 C 
ATOM      7  C   UNL     1     -34.117  -8.504  15.006  0.00  0.00    -0.030 C 
ATOM      8  C   UNL     1     -34.697  -9.191  14.007  0.00  0.00    -0.030 C 
ATOM      9  C   UNL     1     -35.055 -10.655  14.118  0.00  0.00    +0.040 C 
ATOM     10  C   UNL     1     -34.277 -11.392  15.229  0.00  0.00    +0.093 C 
BRANCH   5  12
ATOM     11  O   UNL     1     -33.354 -10.628  18.730  0.00  0.00    -0.251 OA
ATOM     12  C   UNL     1     -33.622 -11.256  17.670  0.00  0.00    +0.309 C 
BRANCH  12  13
ATOM     13  O   UNL     1     -33.372 -12.624  17.596  0.00  0.00    -0.480 OA
ATOM     14  H   UNL     1     -34.054 -13.296  17.926  0.00  0.00    +0.295 HD
ENDBRANCH  12  13
ENDBRANCH   5  12
ENDBRANCH   1  10
BRANCH   3  15
ATOM     15  C   UNL     1     -31.105 -13.599  14.862  0.00  0.00    +0.037 A 
ATOM     16  C   UNL     1     -30.494 -14.131  13.713  0.00  0.00    +0.023 A 
ATOM     17  C   UNL     1     -29.154 -14.525  13.747  0.00  0.00    +0.005 A 
ATOM     18  C   UNL     1     -28.407 -14.374  14.916  0.00  0.00    +0.046 A 
ATOM     19  C   UNL     1     -28.987 -13.817  16.061  0.00  0.00    +0.123 A 
ATOM     20  C   UNL     1     -30.341 -13.427  16.027  0.00  0.00    +0.069 A 
BRANCH  19  21
ATOM     21  O   UNL     1     -28.190 -13.665  17.206  0.00  0.00    -0.487 OA
BRANCH  21  22
ATOM     22  C   UNL     1     -28.275 -12.567  18.108  0.00  0.00    +0.266 C 
BRANCH  22  23
ATOM     23  C   UNL     1     -27.981 -13.048  19.499  0.00  0.00    +0.008 A 
ATOM     24  C   UNL     1     -26.698 -13.503  19.834  0.00  0.00    +0.010 A 
ATOM     25  C   UNL     1     -26.440 -13.978  21.121  0.00  0.00    +0.020 A 
ATOM     26  C   UNL     1     -27.473 -14.004  22.060  0.00  0.00    +0.111 A 
ATOM     27  N   UNL     1     -28.716 -13.571  21.717  0.00  0.00    -0.263 NA
ATOM     28  C   UNL     1     -28.992 -13.103  20.470  0.00  0.00    +0.117 A 
ENDBRANCH  22  23
ENDBRANCH  21  22
ENDBRANCH  19  21
ENDBRANCH   3  15
TORSDOF 7
ENDMDL
MODEL 9
REMARK VINA RESULT:    -4.043      2.438      4.892
REMARK INTER + INTRA:          -6.461
REMARK INTER:                  -5.595
REMARK INTRA:                  -0.866
REMARK UNBOUND:                -0.881
REMARK  Name = 
REMARK  7 active torsions:
REMARK  status: ('A' for Active; 'I' for Inactive)
REMARK    1  A    between atoms: C_2  and  O_3
REMARK    2  A    between atoms: C_2  and  C_4
REMARK    3  A    between atoms: C_9  and  C_10
REMARK    4  A    between atoms: N_12  and  C_13
REMARK    5  A    between atoms: C_17  and  O_19
REMARK    6  A    between atoms: O_19  and  C_20
REMARK    7  A    between atoms: C_20  and  C_21
REMARK                            x       y       z     vdW  Elec       q    Type
REMARK                         _______ _______ _______ _____ _____    ______ ____
ROOT
ATOM      1  C   UNL     1     -32.529 -11.205  19.523  0.00  0.00    +0.221 C 
ATOM      2  O   UNL     1     -32.871 -12.375  19.201  0.00  0.00    -0.275 OA
ATOM      3  N   UNL     1     -32.327 -10.207  18.510  0.00  0.00    -0.285 N 
ATOM      4  H   UNL     1     -31.730  -9.382  18.751  0.00  0.00    +0.155 HD
ENDROOT
BRANCH   1  10
ATOM      5  C   UNL     1     -31.557  -9.520  21.165  0.00  0.00    +0.113 C 
ATOM      6  C   UNL     1     -32.358  -8.323  20.618  0.00  0.00    +0.042 C 
ATOM      7  C   UNL     1     -33.787  -8.328  21.101  0.00  0.00    -0.030 C 
ATOM      8  C   UNL     1     -34.409  -9.444  21.520  0.00  0.00    -0.030 C 
ATOM      9  C   UNL     1     -33.687 -10.754  21.734  0.00  0.00    +0.040 C 
ATOM     10  C   UNL     1     -32.341 -10.841  20.983  0.00  0.00    +0.093 C 
BRANCH   5  12
ATOM     11  O   UNL     1     -29.915  -8.923  19.524  0.00  0.00    -0.251 OA
ATOM     12  C   UNL     1     -30.179  -9.596  20.556  0.00  0.00    +0.309 C 
BRANCH  12  13
ATOM     13  O   UNL     1     -29.183 -10.364  21.153  0.00  0.00    -0.480 OA
ATOM     14  H   UNL     1     -29.352 -10.847  22.028  0.00  0.00    +0.295 HD
ENDBRANCH  12  13
ENDBRANCH   5  12
ENDBRANCH   1  10
BRANCH   3  15
ATOM     15  C   UNL     1     -32.860 -10.288  17.176  0.00  0.00    +0.037 A 
ATOM     16  C   UNL     1     -34.064  -9.650  16.826  0.00  0.00    +0.023 A 
ATOM     17  C   UNL     1     -34.544  -9.725  15.516  0.00  0.00    +0.005 A 
ATOM     18  C   UNL     1     -33.823 -10.417  14.542  0.00  0.00    +0.046 A 
ATOM     19  C   UNL     1     -32.608 -11.032  14.862  0.00  0.00    +0.123 A 
ATOM     20  C   UNL     1     -32.128 -10.961  16.185  0.00  0.00    +0.069 A 
BRANCH  19  21
ATOM     21  O   UNL     1     -31.908 -11.697  13.844  0.00  0.00    -0.487 OA
BRANCH  21  22
ATOM     22  C   UNL     1     -32.082 -13.070  13.509  0.00  0.00    +0.266 C 
BRANCH  22  23
ATOM     23  C   UNL     1     -30.778 -13.791  13.690  0.00  0.00    +0.008 A 
ATOM     24  C   UNL     1     -30.274 -14.030  14.977  0.00  0.00    +0.010 A 
ATOM     25  C   UNL     1     -29.046 -14.673  15.136  0.00  0.00    +0.020 A 
ATOM     26  C   UNL     1     -28.326 -15.062  14.005  0.00  0.00    +0.111 A 
ATOM     27  N   UNL     1     -28.821 -14.812  12.762  0.00  0.00    -0.263 NA
ATOM     28  C   UNL     1     -30.016 -14.187  12.582  0.00  0.00    +0.117 A 
ENDBRANCH  22  23
ENDBRANCH  21  22
ENDBRANCH  19  21
ENDBRANCH   3  15
TORSDOF 7
ENDMDL
