MODEL 1
REMARK VINA RESULT:    -6.398      0.000      0.000
REMARK INTER + INTRA:          -9.888
REMARK INTER:                  -8.829
REMARK INTRA:                  -1.058
REMARK UNBOUND:                -1.058
REMARK  Name = 
REMARK  7 active torsions:
REMARK  status: ('A' for Active; 'I' for Inactive)
REMARK    1  A    between atoms: C_2  and  O_3
REMARK    2  A    between atoms: C_2  and  C_4
REMARK    3  A    between atoms: C_4  and  C_5
REMARK    4  A    between atoms: C_4  and  C_19
REMARK    5  A    between atoms: C_5  and  N_6
REMARK    6  A    between atoms: C_7  and  C_9
REMARK    7  A    between atoms: C_11  and  C_12
REMARK                            x       y       z     vdW  Elec       q    Type
REMARK                         _______ _______ _______ _____ _____    ______ ____
ROOT
ATOM      1  N   UNL     1     -29.576 -11.119  17.364  0.00  0.00    -0.314 N 
ATOM      2  C   UNL     1     -30.519 -10.084  17.055  0.00  0.00    +0.217 C 
ATOM      3  O   UNL     1     -30.685  -9.115  17.845  0.00  0.00    -0.275 OA
ATOM      4  H   UNL     1     -29.419 -11.883  16.668  0.00  0.00    +0.149 HD
ENDROOT
BRANCH   2   5
ATOM      5  C   UNL     1     -31.348 -10.174  15.811  0.00  0.00    +0.083 C 
ATOM      6  C   UNL     1     -32.821  -9.859  16.019  0.00  0.00    +0.022 C 
ATOM      7  C   UNL     1     -32.376 -11.304  15.802  0.00  0.00    +0.033 C 
BRANCH   7   8
ATOM      8  C   UNL     1     -32.673 -11.878  14.439  0.00  0.00    -0.025 A 
ATOM      9  C   UNL     1     -33.793 -11.423  13.720  0.00  0.00    +0.005 A 
ATOM     10  C   UNL     1     -34.102 -11.968  12.472  0.00  0.00    +0.000 A 
ATOM     11  C   UNL     1     -33.313 -12.988  11.938  0.00  0.00    +0.001 A 
ATOM     12  C   UNL     1     -32.219 -13.475  12.658  0.00  0.00    +0.020 A 
ATOM     13  C   UNL     1     -31.900 -12.935  13.910  0.00  0.00    +0.044 A 
ATOM     14 CL   UNL     1     -30.545 -13.625  14.797  0.00  0.00    -0.083 Cl
ENDBRANCH   7   8
ENDBRANCH   2   5
BRANCH   1  15
ATOM     15  C   UNL     1     -28.777 -11.120  18.589  0.00  0.00    +0.123 C 
BRANCH  15  16
ATOM     16  C   UNL     1     -29.286 -12.186  19.580  0.00  0.00    +0.144 C 
BRANCH  16  17
ATOM     17  C   UNL     1     -28.127 -12.913  20.231  0.00  0.00    -0.032 A 
ATOM     18  C   UNL     1     -26.846 -12.912  19.643  0.00  0.00    +0.007 A 
ATOM     19  C   UNL     1     -25.784 -13.580  20.258  0.00  0.00    +0.038 A 
ATOM     20  C   UNL     1     -25.984 -14.253  21.467  0.00  0.00    +0.123 A 
ATOM     21  F   UNL     1     -24.953 -14.901  22.061  0.00  0.00    -0.205 F 
ATOM     22  C   UNL     1     -27.248 -14.255  22.062  0.00  0.00    +0.038 A 
ATOM     23  C   UNL     1     -28.315 -13.589  21.450  0.00  0.00    +0.007 A 
ENDBRANCH  16  17
BRANCH  16  25
ATOM     24  O   UNL     1     -31.436 -12.871  18.772  0.00  0.00    -0.250 OA
ATOM     25  C   UNL     1     -30.221 -13.168  18.921  0.00  0.00    +0.314 C 
BRANCH  25  26
ATOM     26  O   UNL     1     -29.763 -14.420  18.518  0.00  0.00    -0.480 OA
ATOM     27  H   UNL     1     -29.268 -14.535  17.643  0.00  0.00    +0.295 HD
ENDBRANCH  25  26
ENDBRANCH  16  25
ENDBRANCH  15  16
ENDBRANCH   1  15
TORSDOF 7
ENDMDL
MODEL 2
REMARK VINA RESULT:    -6.189      0.309      1.179
REMARK INTER + INTRA:          -9.599
REMARK INTER:                  -8.526
REMARK INTRA:                  -1.074
REMARK UNBOUND:                -1.058
REMARK  Name = 
REMARK  7 active torsions:
REMARK  status: ('A' for Active; 'I' for Inactive)
REMARK    1  A    between atoms: C_2  and  O_3
REMARK    2  A    between atoms: C_2  and  C_4
REMARK    3  A    between atoms: C_4  and  C_5
REMARK    4  A    between atoms: C_4  and  C_19
REMARK    5  A    between atoms: C_5  and  N_6
REMARK    6  A    between atoms: C_7  and  C_9
REMARK    7  A    between atoms: C_11  and  C_12
REMARK                            x       y       z     vdW  Elec       q    Type
REMARK                         _______ _______ _______ _____ _____    ______ ____
ROOT
ATOM      1  N   UNL     1     -29.716 -11.092  17.560  0.00  0.00    -0.314 N 
ATOM      2  C   UNL     1     -30.647 -10.096  17.119  0.00  0.00    +0.217 C 
ATOM      3  O   UNL     1     -30.922  -9.108  17.854  0.00  0.00    -0.275 OA
ATOM      4  H   UNL     1     -29.467 -11.873  16.911  0.00  0.00    +0.149 HD
ENDROOT
BRANCH   2   5
ATOM      5  C   UNL     1     -31.338 -10.248  15.798  0.00  0.00    +0.083 C 
ATOM      6  C   UNL     1     -32.809  -9.867  15.816  0.00  0.00    +0.022 C 
ATOM      7  C   UNL     1     -32.407 -11.339  15.752  0.00  0.00    +0.033 C 
BRANCH   7   8
ATOM      8  C   UNL     1     -32.577 -12.001  14.408  0.00  0.00    -0.025 A 
ATOM      9  C   UNL     1     -33.686 -11.677  13.606  0.00  0.00    +0.005 A 
ATOM     10  C   UNL     1     -33.877 -12.306  12.374  0.00  0.00    +0.000 A 
ATOM     11  C   UNL     1     -32.978 -13.282  11.939  0.00  0.00    +0.001 A 
ATOM     12  C   UNL     1     -31.892 -13.640  12.742  0.00  0.00    +0.020 A 
ATOM     13  C   UNL     1     -31.691 -13.014  13.979  0.00  0.00    +0.044 A 
ATOM     14 CL   UNL     1     -30.340 -13.545  14.974  0.00  0.00    -0.083 Cl
ENDBRANCH   7   8
ENDBRANCH   2   5
BRANCH   1  15
ATOM     15  C   UNL     1     -29.052 -11.032  18.862  0.00  0.00    +0.123 C 
BRANCH  15  16
ATOM     16  C   UNL     1     -29.503 -12.196  19.766  0.00  0.00    +0.144 C 
BRANCH  16  17
ATOM     17  C   UNL     1     -28.306 -12.924  20.344  0.00  0.00    -0.032 A 
ATOM     18  C   UNL     1     -28.433 -13.742  21.484  0.00  0.00    +0.007 A 
ATOM     19  C   UNL     1     -27.322 -14.414  22.001  0.00  0.00    +0.038 A 
ATOM     20  C   UNL     1     -26.074 -14.283  21.386  0.00  0.00    +0.123 A 
ATOM     21  F   UNL     1     -24.998 -14.935  21.890  0.00  0.00    -0.205 F 
ATOM     22  C   UNL     1     -25.937 -13.481  20.251  0.00  0.00    +0.038 A 
ATOM     23  C   UNL     1     -27.045 -12.805  19.730  0.00  0.00    +0.007 A 
ENDBRANCH  16  17
BRANCH  16  25
ATOM     24  O   UNL     1     -29.925 -13.922  18.158  0.00  0.00    -0.250 OA
ATOM     25  C   UNL     1     -30.405 -13.160  19.040  0.00  0.00    +0.314 C 
BRANCH  25  26
ATOM     26  O   UNL     1     -31.773 -13.184  19.300  0.00  0.00    -0.480 OA
ATOM     27  H   UNL     1     -32.212 -14.005  19.699  0.00  0.00    +0.295 HD
ENDBRANCH  25  26
ENDBRANCH  16  25
ENDBRANCH  15  16
ENDBRANCH   1  15
TORSDOF 7
ENDMDL
MODEL 3
REMARK VINA RESULT:    -5.353      1.134      1.410
REMARK INTER + INTRA:          -8.446
REMARK INTER:                  -7.459
REMARK INTRA:                  -0.987
REMARK UNBOUND:                -1.058
REMARK  Name = 
REMARK  7 active torsions:
REMARK  status: ('A' for Active; 'I' for Inactive)
REMARK    1  A    between atoms: C_2  and  O_3
REMARK    2  A    between atoms: C_2  and  C_4
REMARK    3  A    between atoms: C_4  and  C_5
REMARK    4  A    between atoms: C_4  and  C_19
REMARK    5  A    between atoms: C_5  and  N_6
REMARK    6  A    between atoms: C_7  and  C_9
REMARK    7  A    between atoms: C_11  and  C_12
REMARK                            x       y       z     vdW  Elec       q    Type
REMARK                         _______ _______ _______ _____ _____    ______ ____
ROOT
ATOM      1  N   UNL     1     -30.188 -10.856  17.913  0.00  0.00    -0.314 N 
ATOM      2  C   UNL     1     -30.971 -10.065  17.010  0.00  0.00    +0.217 C 
ATOM      3  O   UNL     1     -31.510  -8.994  17.402  0.00  0.00    -0.275 OA
ATOM      4  H   UNL     1     -29.710 -11.712  17.550  0.00  0.00    +0.149 HD
ENDROOT
BRANCH   2   5
ATOM      5  C   UNL     1     -31.196 -10.533  15.605  0.00  0.00    +0.083 C 
ATOM      6  C   UNL     1     -32.637 -10.424  15.134  0.00  0.00    +0.022 C 
ATOM      7  C   UNL     1     -32.050 -11.793  15.475  0.00  0.00    +0.033 C 
BRANCH   7   8
ATOM      8  C   UNL     1     -31.711 -12.667  14.293  0.00  0.00    -0.025 A 
ATOM      9  C   UNL     1     -32.541 -12.656  13.157  0.00  0.00    +0.005 A 
ATOM     10  C   UNL     1     -32.261 -13.485  12.069  0.00  0.00    +0.000 A 
ATOM     11  C   UNL     1     -31.165 -14.349  12.109  0.00  0.00    +0.001 A 
ATOM     12  C   UNL     1     -30.355 -14.396  13.245  0.00  0.00    +0.020 A 
ATOM     13  C   UNL     1     -30.626 -13.569  14.343  0.00  0.00    +0.044 A 
ATOM     14 CL   UNL     1     -29.605 -13.711  15.769  0.00  0.00    -0.083 Cl
ENDBRANCH   7   8
ENDBRANCH   2   5
BRANCH   1  15
ATOM     15  C   UNL     1     -29.978 -10.484  19.312  0.00  0.00    +0.123 C 
BRANCH  15  16
ATOM     16  C   UNL     1     -30.176 -11.698  20.242  0.00  0.00    +0.144 C 
BRANCH  16  17
ATOM     17  C   UNL     1     -28.899 -12.506  20.351  0.00  0.00    -0.032 A 
ATOM     18  C   UNL     1     -27.789 -12.226  19.529  0.00  0.00    +0.007 A 
ATOM     19  C   UNL     1     -26.614 -12.975  19.646  0.00  0.00    +0.038 A 
ATOM     20  C   UNL     1     -26.531 -14.006  20.586  0.00  0.00    +0.123 A 
ATOM     21  F   UNL     1     -25.391 -14.731  20.697  0.00  0.00    -0.205 F 
ATOM     22  C   UNL     1     -27.622 -14.288  21.411  0.00  0.00    +0.038 A 
ATOM     23  C   UNL     1     -28.800 -13.543  21.297  0.00  0.00    +0.007 A 
ENDBRANCH  16  17
BRANCH  16  25
ATOM     24  O   UNL     1     -32.453 -12.442  20.319  0.00  0.00    -0.250 OA
ATOM     25  C   UNL     1     -31.317 -12.574  19.792  0.00  0.00    +0.314 C 
BRANCH  25  26
ATOM     26  O   UNL     1     -31.115 -13.562  18.830  0.00  0.00    -0.480 OA
ATOM     27  H   UNL     1     -30.512 -13.396  18.034  0.00  0.00    +0.295 HD
ENDBRANCH  25  26
ENDBRANCH  16  25
ENDBRANCH  15  16
ENDBRANCH   1  15
TORSDOF 7
ENDMDL
MODEL 4
REMARK VINA RESULT:    -5.321      2.586      3.587
REMARK INTER + INTRA:          -8.402
REMARK INTER:                  -6.886
REMARK INTRA:                  -1.515
REMARK UNBOUND:                -1.058
REMARK  Name = 
REMARK  7 active torsions:
REMARK  status: ('A' for Active; 'I' for Inactive)
REMARK    1  A    between atoms: C_2  and  O_3
REMARK    2  A    between atoms: C_2  and  C_4
REMARK    3  A    between atoms: C_4  and  C_5
REMARK    4  A    between atoms: C_4  and  C_19
REMARK    5  A    between atoms: C_5  and  N_6
REMARK    6  A    between atoms: C_7  and  C_9
REMARK    7  A    between atoms: C_11  and  C_12
REMARK                            x       y       z     vdW  Elec       q    Type
REMARK                         _______ _______ _______ _____ _____    ______ ____
ROOT
ATOM      1  N   UNL     1     -32.079  -9.304  17.586  0.00  0.00    -0.314 N 
ATOM      2  C   UNL     1     -30.935  -9.822  16.894  0.00  0.00    +0.217 C 
ATOM      3  O   UNL     1     -29.774  -9.636  17.350  0.00  0.00    -0.275 OA
ATOM      4  H   UNL     1     -33.032  -9.516  17.214  0.00  0.00    +0.149 HD
ENDROOT
BRANCH   2   5
ATOM      5  C   UNL     1     -31.111 -10.549  15.596  0.00  0.00    +0.083 C 
ATOM      6  C   UNL     1     -32.555 -10.887  15.261  0.00  0.00    +0.022 C 
ATOM      7  C   UNL     1     -31.605 -11.989  15.725  0.00  0.00    +0.033 C 
BRANCH   7   8
ATOM      8  C   UNL     1     -31.117 -12.924  14.646  0.00  0.00    -0.025 A 
ATOM      9  C   UNL     1     -31.766 -12.948  13.399  0.00  0.00    +0.005 A 
ATOM     10  C   UNL     1     -31.350 -13.831  12.401  0.00  0.00    +0.000 A 
ATOM     11  C   UNL     1     -30.297 -14.716  12.642  0.00  0.00    +0.001 A 
ATOM     12  C   UNL     1     -29.668 -14.727  13.889  0.00  0.00    +0.020 A 
ATOM     13  C   UNL     1     -30.077 -13.845  14.897  0.00  0.00    +0.044 A 
ATOM     14 CL   UNL     1     -29.286 -13.943  16.466  0.00  0.00    -0.083 Cl
ENDBRANCH   7   8
ENDBRANCH   2   5
BRANCH   1  15
ATOM     15  C   UNL     1     -31.971  -8.537  18.826  0.00  0.00    +0.123 C 
BRANCH  15  16
ATOM     16  C   UNL     1     -32.429  -9.375  20.036  0.00  0.00    +0.144 C 
BRANCH  16  17
ATOM     17  C   UNL     1     -31.500 -10.552  20.258  0.00  0.00    -0.032 A 
ATOM     18  C   UNL     1     -30.209 -10.369  20.795  0.00  0.00    +0.007 A 
ATOM     19  C   UNL     1     -29.366 -11.464  21.001  0.00  0.00    +0.038 A 
ATOM     20  C   UNL     1     -29.800 -12.753  20.680  0.00  0.00    +0.123 A 
ATOM     21  F   UNL     1     -28.979 -13.813  20.881  0.00  0.00    -0.205 F 
ATOM     22  C   UNL     1     -31.079 -12.948  20.154  0.00  0.00    +0.038 A 
ATOM     23  C   UNL     1     -31.926 -11.856  19.944  0.00  0.00    +0.007 A 
ENDBRANCH  16  17
BRANCH  16  25
ATOM     24  O   UNL     1     -34.320 -10.076  18.742  0.00  0.00    -0.250 OA
ATOM     25  C   UNL     1     -33.852  -9.849  19.890  0.00  0.00    +0.314 C 
BRANCH  25  26
ATOM     26  O   UNL     1     -34.669  -9.994  21.008  0.00  0.00    -0.480 OA
ATOM     27  H   UNL     1     -34.272 -10.073  21.935  0.00  0.00    +0.295 HD
ENDBRANCH  25  26
ENDBRANCH  16  25
ENDBRANCH  15  16
ENDBRANCH   1  15
TORSDOF 7
ENDMDL
MODEL 5
REMARK VINA RESULT:    -5.279      2.598      3.498
REMARK INTER + INTRA:          -8.343
REMARK INTER:                  -7.325
REMARK INTRA:                  -1.018
REMARK UNBOUND:                -1.058
REMARK  Name = 
REMARK  7 active torsions:
REMARK  status: ('A' for Active; 'I' for Inactive)
REMARK    1  A    between atoms: C_2  and  O_3
REMARK    2  A    between atoms: C_2  and  C_4
REMARK    3  A    between atoms: C_4  and  C_5
REMARK    4  A    between atoms: C_4  and  C_19
REMARK    5  A    between atoms: C_5  and  N_6
REMARK    6  A    between atoms: C_7  and  C_9
REMARK    7  A    between atoms: C_11  and  C_12
REMARK                            x       y       z     vdW  Elec       q    Type
REMARK                         _______ _______ _______ _____ _____    ______ ____
ROOT
ATOM      1  N   UNL     1     -29.370 -11.931  17.349  0.00  0.00    -0.314 N 
ATOM      2  C   UNL     1     -30.061 -10.696  17.120  0.00  0.00    +0.217 C 
ATOM      3  O   UNL     1     -29.945  -9.739  17.934  0.00  0.00    -0.275 OA
ATOM      4  H   UNL     1     -29.442 -12.689  16.633  0.00  0.00    +0.149 HD
ENDROOT
BRANCH   2   5
ATOM      5  C   UNL     1     -30.965 -10.552  15.935  0.00  0.00    +0.083 C 
ATOM      6  C   UNL     1     -32.366 -10.066  16.274  0.00  0.00    +0.022 C 
ATOM      7  C   UNL     1     -32.140 -11.529  15.897  0.00  0.00    +0.033 C 
BRANCH   7   8
ATOM      8  C   UNL     1     -32.592 -11.921  14.513  0.00  0.00    -0.025 A 
ATOM      9  C   UNL     1     -33.788 -11.394  13.995  0.00  0.00    +0.005 A 
ATOM     10  C   UNL     1     -34.239 -11.773  12.729  0.00  0.00    +0.000 A 
ATOM     11  C   UNL     1     -33.515 -12.699  11.975  0.00  0.00    +0.001 A 
ATOM     12  C   UNL     1     -32.344 -13.257  12.493  0.00  0.00    +0.020 A 
ATOM     13  C   UNL     1     -31.882 -12.883  13.761  0.00  0.00    +0.044 A 
ATOM     14 CL   UNL     1     -30.433 -13.662  14.386  0.00  0.00    -0.083 Cl
ENDBRANCH   7   8
ENDBRANCH   2   5
BRANCH   1  15
ATOM     15  C   UNL     1     -28.519 -12.156  18.517  0.00  0.00    +0.123 C 
BRANCH  15  16
ATOM     16  C   UNL     1     -29.217 -13.071  19.542  0.00  0.00    +0.144 C 
BRANCH  16  17
ATOM     17  C   UNL     1     -30.358 -12.343  20.223  0.00  0.00    -0.032 A 
ATOM     18  C   UNL     1     -30.118 -11.440  21.279  0.00  0.00    +0.007 A 
ATOM     19  C   UNL     1     -31.180 -10.771  21.893  0.00  0.00    +0.038 A 
ATOM     20  C   UNL     1     -32.491 -10.988  21.460  0.00  0.00    +0.123 A 
ATOM     21  F   UNL     1     -33.518 -10.338  22.058  0.00  0.00    -0.205 F 
ATOM     22  C   UNL     1     -32.740 -11.875  20.410  0.00  0.00    +0.038 A 
ATOM     23  C   UNL     1     -31.682 -12.550  19.793  0.00  0.00    +0.007 A 
ENDBRANCH  16  17
BRANCH  16  25
ATOM     24  O   UNL     1     -27.091 -13.130  20.646  0.00  0.00    -0.250 OA
ATOM     25  C   UNL     1     -28.252 -13.612  20.566  0.00  0.00    +0.314 C 
BRANCH  25  26
ATOM     26  O   UNL     1     -28.617 -14.671  21.393  0.00  0.00    -0.480 OA
ATOM     27  H   UNL     1     -28.426 -15.629  21.126  0.00  0.00    +0.295 HD
ENDBRANCH  25  26
ENDBRANCH  16  25
ENDBRANCH  15  16
ENDBRANCH   1  15
TORSDOF 7
ENDMDL
MODEL 6
REMARK VINA RESULT:    -5.258      2.301      3.696
REMARK INTER + INTRA:          -8.314
REMARK INTER:                  -7.472
REMARK INTRA:                  -0.842
REMARK UNBOUND:                -1.058
REMARK  Name = 
REMARK  7 active torsions:
REMARK  status: ('A' for Active; 'I' for Inactive)
REMARK    1  A    between atoms: C_2  and  O_3
REMARK    2  A    between atoms: C_2  and  C_4
REMARK    3  A    between atoms: C_4  and  C_5
REMARK    4  A    between atoms: C_4  and  C_19
REMARK    5  A    between atoms: C_5  and  N_6
REMARK    6  A    between atoms: C_7  and  C_9
REMARK    7  A    between atoms: C_11  and  C_12
REMARK                            x       y       z     vdW  Elec       q    Type
REMARK                         _______ _______ _______ _____ _____    ______ ____
ROOT
ATOM      1  N   UNL     1     -32.307 -10.629  17.916  0.00  0.00    -0.314 N 
ATOM      2  C   UNL     1     -32.573 -12.026  18.097  0.00  0.00    +0.217 C 
ATOM      3  O   UNL     1     -32.820 -12.485  19.246  0.00  0.00    -0.275 OA
ATOM      4  H   UNL     1     -32.156 -10.266  16.947  0.00  0.00    +0.149 HD
ENDROOT
BRANCH   2   5
ATOM      5  C   UNL     1     -32.513 -12.958  16.926  0.00  0.00    +0.083 C 
ATOM      6  C   UNL     1     -31.626 -14.174  17.142  0.00  0.00    +0.022 C 
ATOM      7  C   UNL     1     -31.152 -13.039  16.236  0.00  0.00    +0.033 C 
BRANCH   7   8
ATOM      8  C   UNL     1     -31.210 -13.321  14.755  0.00  0.00    -0.025 A 
ATOM      9  C   UNL     1     -32.263 -12.795  13.986  0.00  0.00    +0.005 A 
ATOM     10  C   UNL     1     -32.351 -13.076  12.621  0.00  0.00    +0.000 A 
ATOM     11  C   UNL     1     -31.404 -13.902  12.013  0.00  0.00    +0.001 A 
ATOM     12  C   UNL     1     -30.373 -14.460  12.773  0.00  0.00    +0.020 A 
ATOM     13  C   UNL     1     -30.276 -14.185  14.143  0.00  0.00    +0.044 A 
ATOM     14 CL   UNL     1     -28.991 -14.961  15.062  0.00  0.00    -0.083 Cl
ENDBRANCH   7   8
ENDBRANCH   2   5
BRANCH   1  15
ATOM     15  C   UNL     1     -32.293  -9.676  19.026  0.00  0.00    +0.123 C 
BRANCH  15  16
ATOM     16  C   UNL     1     -30.881  -9.097  19.240  0.00  0.00    +0.144 C 
BRANCH  16  17
ATOM     17  C   UNL     1     -29.853 -10.207  19.339  0.00  0.00    -0.032 A 
ATOM     18  C   UNL     1     -29.757 -11.007  20.495  0.00  0.00    +0.007 A 
ATOM     19  C   UNL     1     -28.809 -12.032  20.571  0.00  0.00    +0.038 A 
ATOM     20  C   UNL     1     -27.952 -12.274  19.494  0.00  0.00    +0.123 A 
ATOM     21  F   UNL     1     -27.034 -13.268  19.570  0.00  0.00    -0.205 F 
ATOM     22  C   UNL     1     -28.043 -11.493  18.340  0.00  0.00    +0.038 A 
ATOM     23  C   UNL     1     -28.988 -10.465  18.260  0.00  0.00    +0.007 A 
ENDBRANCH  16  17
BRANCH  16  25
ATOM     24  O   UNL     1     -31.744  -8.236  21.303  0.00  0.00    -0.250 OA
ATOM     25  C   UNL     1     -30.813  -8.207  20.454  0.00  0.00    +0.314 C 
BRANCH  25  26
ATOM     26  O   UNL     1     -29.754  -7.319  20.624  0.00  0.00    -0.480 OA
ATOM     27  H   UNL     1     -29.813  -6.560  21.291  0.00  0.00    +0.295 HD
ENDBRANCH  25  26
ENDBRANCH  16  25
ENDBRANCH  15  16
ENDBRANCH   1  15
TORSDOF 7
ENDMDL
MODEL 7
REMARK VINA RESULT:    -5.180      3.004      7.191
REMARK INTER + INTRA:          -8.207
REMARK INTER:                  -7.003
REMARK INTRA:                  -1.204
REMARK UNBOUND:                -1.058
REMARK  Name = 
REMARK  7 active torsions:
REMARK  status: ('A' for Active; 'I' for Inactive)
REMARK    1  A    between atoms: C_2  and  O_3
REMARK    2  A    between atoms: C_2  and  C_4
REMARK    3  A    between atoms: C_4  and  C_5
REMARK    4  A    between atoms: C_4  and  C_19
REMARK    5  A    between atoms: C_5  and  N_6
REMARK    6  A    between atoms: C_7  and  C_9
REMARK    7  A    between atoms: C_11  and  C_12
REMARK                            x       y       z     vdW  Elec       q    Type
REMARK                         _______ _______ _______ _____ _____    ______ ____
ROOT
ATOM      1  N   UNL     1     -31.015 -10.649  18.335  0.00  0.00    -0.314 N 
ATOM      2  C   UNL     1     -29.667 -10.410  17.910  0.00  0.00    +0.217 C 
ATOM      3  O   UNL     1     -29.436  -9.821  16.819  0.00  0.00    -0.275 OA
ATOM      4  H   UNL     1     -31.178 -11.092  19.267  0.00  0.00    +0.149 HD
ENDROOT
BRANCH   2   5
ATOM      5  C   UNL     1     -28.521 -10.904  18.739  0.00  0.00    +0.083 C 
ATOM      6  C   UNL     1     -27.293 -11.298  17.934  0.00  0.00    +0.022 C 
ATOM      7  C   UNL     1     -28.178 -12.381  18.550  0.00  0.00    +0.033 C 
BRANCH   7   8
ATOM      8  C   UNL     1     -27.617 -13.061  19.774  0.00  0.00    -0.025 A 
ATOM      9  C   UNL     1     -26.231 -13.278  19.876  0.00  0.00    +0.005 A 
ATOM     10  C   UNL     1     -25.698 -13.937  20.986  0.00  0.00    +0.000 A 
ATOM     11  C   UNL     1     -26.542 -14.407  21.994  0.00  0.00    +0.001 A 
ATOM     12  C   UNL     1     -27.924 -14.231  21.886  0.00  0.00    +0.020 A 
ATOM     13  C   UNL     1     -28.468 -13.570  20.778  0.00  0.00    +0.044 A 
ATOM     14 CL   UNL     1     -30.219 -13.427  20.667  0.00  0.00    -0.083 Cl
ENDBRANCH   7   8
ENDBRANCH   2   5
BRANCH   1  15
ATOM     15  C   UNL     1     -32.176 -10.244  17.544  0.00  0.00    +0.123 C 
BRANCH  15  16
ATOM     16  C   UNL     1     -33.013 -11.468  17.123  0.00  0.00    +0.144 C 
BRANCH  16  17
ATOM     17  C   UNL     1     -32.215 -12.376  16.208  0.00  0.00    -0.032 A 
ATOM     18  C   UNL     1     -31.660 -13.582  16.683  0.00  0.00    +0.007 A 
ATOM     19  C   UNL     1     -30.933 -14.413  15.826  0.00  0.00    +0.038 A 
ATOM     20  C   UNL     1     -30.755 -14.055  14.486  0.00  0.00    +0.123 A 
ATOM     21  F   UNL     1     -30.050 -14.863  13.658  0.00  0.00    -0.205 F 
ATOM     22  C   UNL     1     -31.307 -12.866  14.003  0.00  0.00    +0.038 A 
ATOM     23  C   UNL     1     -32.033 -12.030  14.856  0.00  0.00    +0.007 A 
ENDBRANCH  16  17
BRANCH  16  25
ATOM     24  O   UNL     1     -35.062 -11.954  15.980  0.00  0.00    -0.250 OA
ATOM     25  C   UNL     1     -34.310 -11.069  16.468  0.00  0.00    +0.314 C 
BRANCH  25  26
ATOM     26  O   UNL     1     -34.662  -9.726  16.354  0.00  0.00    -0.480 OA
ATOM     27  H   UNL     1     -34.024  -9.053  15.950  0.00  0.00    +0.295 HD
ENDBRANCH  25  26
ENDBRANCH  16  25
ENDBRANCH  15  16
ENDBRANCH   1  15
TORSDOF 7
ENDMDL
MODEL 8
REMARK VINA RESULT:    -5.147      2.941      4.143
REMARK INTER + INTRA:          -8.162
REMARK INTER:                  -7.822
REMARK INTRA:                  -0.340
REMARK UNBOUND:                -1.058
REMARK  Name = 
REMARK  7 active torsions:
REMARK  status: ('A' for Active; 'I' for Inactive)
REMARK    1  A    between atoms: C_2  and  O_3
REMARK    2  A    between atoms: C_2  and  C_4
REMARK    3  A    between atoms: C_4  and  C_5
REMARK    4  A    between atoms: C_4  and  C_19
REMARK    5  A    between atoms: C_5  and  N_6
REMARK    6  A    between atoms: C_7  and  C_9
REMARK    7  A    between atoms: C_11  and  C_12
REMARK                            x       y       z     vdW  Elec       q    Type
REMARK                         _______ _______ _______ _____ _____    ______ ____
ROOT
ATOM      1  N   UNL     1     -29.721 -13.445  17.671  0.00  0.00    -0.314 N 
ATOM      2  C   UNL     1     -29.438 -13.992  16.376  0.00  0.00    +0.217 C 
ATOM      3  O   UNL     1     -28.257 -14.303  16.059  0.00  0.00    -0.275 OA
ATOM      4  H   UNL     1     -30.714 -13.244  17.927  0.00  0.00    +0.149 HD
ENDROOT
BRANCH   2   5
ATOM      5  C   UNL     1     -30.539 -14.151  15.373  0.00  0.00    +0.083 C 
ATOM      6  C   UNL     1     -30.072 -14.615  14.002  0.00  0.00    +0.022 C 
ATOM      7  C   UNL     1     -30.499 -13.162  14.209  0.00  0.00    +0.033 C 
BRANCH   7   8
ATOM      8  C   UNL     1     -31.849 -12.795  13.645  0.00  0.00    -0.025 A 
ATOM      9  C   UNL     1     -32.324 -13.447  12.493  0.00  0.00    +0.005 A 
ATOM     10  C   UNL     1     -33.555 -13.095  11.938  0.00  0.00    +0.000 A 
ATOM     11  C   UNL     1     -34.317 -12.074  12.510  0.00  0.00    +0.001 A 
ATOM     12  C   UNL     1     -33.840 -11.394  13.633  0.00  0.00    +0.020 A 
ATOM     13  C   UNL     1     -32.606 -11.739  14.198  0.00  0.00    +0.044 A 
ATOM     14 CL   UNL     1     -32.029 -10.810  15.578  0.00  0.00    -0.083 Cl
ENDBRANCH   7   8
ENDBRANCH   2   5
BRANCH   1  15
ATOM     15  C   UNL     1     -28.683 -13.211  18.674  0.00  0.00    +0.123 C 
BRANCH  15  16
ATOM     16  C   UNL     1     -29.288 -13.142  20.090  0.00  0.00    +0.144 C 
BRANCH  16  17
ATOM     17  C   UNL     1     -29.725 -11.729  20.420  0.00  0.00    -0.032 A 
ATOM     18  C   UNL     1     -29.835 -10.748  19.414  0.00  0.00    +0.007 A 
ATOM     19  C   UNL     1     -30.246  -9.450  19.732  0.00  0.00    +0.038 A 
ATOM     20  C   UNL     1     -30.557  -9.117  21.054  0.00  0.00    +0.123 A 
ATOM     21  F   UNL     1     -30.955  -7.858  21.359  0.00  0.00    -0.205 F 
ATOM     22  C   UNL     1     -30.458 -10.083  22.058  0.00  0.00    +0.038 A 
ATOM     23  C   UNL     1     -30.046 -11.382  21.746  0.00  0.00    +0.007 A 
ENDBRANCH  16  17
BRANCH  16  25
ATOM     24  O   UNL     1     -27.191 -13.139  21.250  0.00  0.00    -0.250 OA
ATOM     25  C   UNL     1     -28.334 -13.656  21.138  0.00  0.00    +0.314 C 
BRANCH  25  26
ATOM     26  O   UNL     1     -28.688 -14.729  21.952  0.00  0.00    -0.480 OA
ATOM     27  H   UNL     1     -28.005 -15.173  22.553  0.00  0.00    +0.295 HD
ENDBRANCH  25  26
ENDBRANCH  16  25
ENDBRANCH  15  16
ENDBRANCH   1  15
TORSDOF 7
ENDMDL
MODEL 9
REMARK VINA RESULT:    -5.119      3.503      5.062
REMARK INTER + INTRA:          -8.123
REMARK INTER:                  -7.445
REMARK INTRA:                  -0.678
REMARK UNBOUND:                -1.058
REMARK  Name = 
REMARK  7 active torsions:
REMARK  status: ('A' for Active; 'I' for Inactive)
REMARK    1  A    between atoms: C_2  and  O_3
REMARK    2  A    between atoms: C_2  and  C_4
REMARK    3  A    between atoms: C_4  and  C_5
REMARK    4  A    between atoms: C_4  and  C_19
REMARK    5  A    between atoms: C_5  and  N_6
REMARK    6  A    between atoms: C_7  and  C_9
REMARK    7  A    between atoms: C_11  and  C_12
REMARK                            x       y       z     vdW  Elec       q    Type
REMARK                         _______ _______ _______ _____ _____    ______ ____
ROOT
ATOM      1  N   UNL     1     -31.589 -13.197  18.847  0.00  0.00    -0.314 N 
ATOM      2  C   UNL     1     -30.730 -13.767  17.850  0.00  0.00    +0.217 C 
ATOM      3  O   UNL     1     -29.509 -13.965  18.097  0.00  0.00    -0.275 OA
ATOM      4  H   UNL     1     -32.606 -13.091  18.635  0.00  0.00    +0.149 HD
ENDROOT
BRANCH   2   5
ATOM      5  C   UNL     1     -31.270 -14.085  16.490  0.00  0.00    +0.083 C 
ATOM      6  C   UNL     1     -30.229 -14.603  15.510  0.00  0.00    +0.022 C 
ATOM      7  C   UNL     1     -30.766 -13.179  15.368  0.00  0.00    +0.033 C 
BRANCH   7   8
ATOM      8  C   UNL     1     -31.745 -12.964  14.241  0.00  0.00    -0.025 A 
ATOM      9  C   UNL     1     -32.958 -12.297  14.489  0.00  0.00    +0.005 A 
ATOM     10  C   UNL     1     -33.891 -12.120  13.465  0.00  0.00    +0.000 A 
ATOM     11  C   UNL     1     -33.636 -12.626  12.189  0.00  0.00    +0.001 A 
ATOM     12  C   UNL     1     -32.451 -13.322  11.938  0.00  0.00    +0.020 A 
ATOM     13  C   UNL     1     -31.508 -13.505  12.958  0.00  0.00    +0.044 A 
ATOM     14 CL   UNL     1     -30.060 -14.439  12.600  0.00  0.00    -0.083 Cl
ENDBRANCH   7   8
ENDBRANCH   2   5
BRANCH   1  15
ATOM     15  C   UNL     1     -31.110 -12.811  20.174  0.00  0.00    +0.123 C 
BRANCH  15  16
ATOM     16  C   UNL     1     -31.144 -11.280  20.349  0.00  0.00    +0.144 C 
BRANCH  16  17
ATOM     17  C   UNL     1     -31.679 -10.607  19.101  0.00  0.00    -0.032 A 
ATOM     18  C   UNL     1     -30.807 -10.107  18.113  0.00  0.00    +0.007 A 
ATOM     19  C   UNL     1     -31.315  -9.496  16.964  0.00  0.00    +0.038 A 
ATOM     20  C   UNL     1     -32.696  -9.380  16.783  0.00  0.00    +0.123 A 
ATOM     21  F   UNL     1     -33.185  -8.786  15.667  0.00  0.00    -0.205 F 
ATOM     22  C   UNL     1     -33.570  -9.877  17.751  0.00  0.00    +0.038 A 
ATOM     23  C   UNL     1     -33.068 -10.489  18.905  0.00  0.00    +0.007 A 
ENDBRANCH  16  17
BRANCH  16  25
ATOM     24  O   UNL     1     -28.752 -11.386  20.449  0.00  0.00    -0.250 OA
ATOM     25  C   UNL     1     -29.791 -10.722  20.708  0.00  0.00    +0.314 C 
BRANCH  25  26
ATOM     26  O   UNL     1     -29.680  -9.499  21.366  0.00  0.00    -0.480 OA
ATOM     27  H   UNL     1     -29.987  -8.642  20.925  0.00  0.00    +0.295 HD
ENDBRANCH  25  26
ENDBRANCH  16  25
ENDBRANCH  15  16
ENDBRANCH   1  15
TORSDOF 7
ENDMDL
