MODEL 1
REMARK VINA RESULT:    -5.439      0.000      0.000
REMARK INTER + INTRA:          -8.577
REMARK INTER:                  -7.665
REMARK INTRA:                  -0.912
REMARK UNBOUND:                -0.912
REMARK  Name = 
REMARK  7 active torsions:
REMARK  status: ('A' for Active; 'I' for Inactive)
REMARK    1  A    between atoms: S_2  and  N_4
REMARK    2  A    between atoms: S_2  and  C_9
REMARK    3  A    between atoms: N_4  and  C_5
REMARK    4  A    between atoms: C_5  and  C_6
REMARK    5  A    between atoms: C_12  and  S_15
REMARK    6  A    between atoms: S_15  and  N_18
REMARK    7  A    between atoms: N_18  and  C_19
REMARK                            x       y       z     vdW  Elec       q    Type
REMARK                         _______ _______ _______ _____ _____    ______ ____
ROOT
ATOM      1  C   UNL     1     -30.178 -11.971  18.339  0.00  0.00    +0.105 A 
ATOM      2  C   UNL     1     -31.319 -12.773  18.463  0.00  0.00    +0.030 A 
ATOM      3  C   UNL     1     -32.537 -12.346  17.932  0.00  0.00    +0.031 A 
ATOM      4  C   UNL     1     -32.624 -11.117  17.266  0.00  0.00    +0.109 A 
ATOM      5  C   UNL     1     -31.494 -10.293  17.182  0.00  0.00    +0.031 A 
ATOM      6  C   UNL     1     -30.273 -10.720  17.714  0.00  0.00    +0.030 A 
ENDROOT
BRANCH   1   8
ATOM      7  O   UNL     1     -27.804 -11.526  19.463  0.00  0.00    -0.153 OA
ATOM      8  S   UNL     1     -28.611 -12.616  18.816  0.00  0.00    +0.058 S 
ATOM      9  O   UNL     1     -27.861 -13.118  17.613  0.00  0.00    -0.153 OA
BRANCH   8  10
ATOM     10  N   UNL     1     -28.839 -13.917  19.947  0.00  0.00    -0.190 NA
ATOM     11  H   UNL     1     -28.619 -14.793  19.420  0.00  0.00    +0.148 HD
BRANCH  10  12
ATOM     12  C   UNL     1     -27.872 -13.794  21.044  0.00  0.00    +0.109 C 
BRANCH  12  13
ATOM     13  C   UNL     1     -26.606 -14.652  20.840  0.00  0.00    +0.005 C 
ATOM     14  C   UNL     1     -25.586 -14.507  21.964  0.00  0.00    +0.005 C 
ATOM     15  C   UNL     1     -25.255 -13.992  20.575  0.00  0.00    +0.005 C 
ENDBRANCH  12  13
ENDBRANCH  10  12
ENDBRANCH   8  10
ENDBRANCH   1   8
BRANCH   4  16
ATOM     16  S   UNL     1     -34.104 -10.703  16.408  0.00  0.00    +0.073 S 
ATOM     17  O   UNL     1     -35.055 -11.864  16.490  0.00  0.00    -0.150 OA
ATOM     18  O   UNL     1     -34.754  -9.490  17.013  0.00  0.00    -0.150 OA
BRANCH  16  19
ATOM     19  N   UNL     1     -33.728 -10.377  14.744  0.00  0.00    -0.199 N 
ATOM     20  H   UNL     1     -33.981  -9.435  14.371  0.00  0.00    +0.175 HD
BRANCH  19  21
ATOM     21  C   UNL     1     -33.359 -11.405  13.811  0.00  0.00    +0.138 A 
ATOM     22  C   UNL     1     -34.265 -11.891  12.852  0.00  0.00    +0.045 A 
ATOM     23  C   UNL     1     -33.844 -12.858  11.938  0.00  0.00    +0.005 A 
ATOM     24  C   UNL     1     -32.540 -13.350  11.997  0.00  0.00    +0.020 A 
ATOM     25  C   UNL     1     -31.673 -12.868  12.980  0.00  0.00    +0.113 A 
ATOM     26  N   UNL     1     -32.098 -11.916  13.855  0.00  0.00    -0.239 NA
ENDBRANCH  19  21
ENDBRANCH  16  19
ENDBRANCH   4  16
TORSDOF 7
ENDMDL
MODEL 2
REMARK VINA RESULT:    -5.177      2.836      6.576
REMARK INTER + INTRA:          -8.208
REMARK INTER:                  -6.374
REMARK INTRA:                  -1.834
REMARK UNBOUND:                -0.912
REMARK  Name = 
REMARK  7 active torsions:
REMARK  status: ('A' for Active; 'I' for Inactive)
REMARK    1  A    between atoms: S_2  and  N_4
REMARK    2  A    between atoms: S_2  and  C_9
REMARK    3  A    between atoms: N_4  and  C_5
REMARK    4  A    between atoms: C_5  and  C_6
REMARK    5  A    between atoms: C_12  and  S_15
REMARK    6  A    between atoms: S_15  and  N_18
REMARK    7  A    between atoms: N_18  and  C_19
REMARK                            x       y       z     vdW  Elec       q    Type
REMARK                         _______ _______ _______ _____ _____    ______ ____
ROOT
ATOM      1  C   UNL     1     -32.183  -9.950  18.027  0.00  0.00    +0.105 A 
ATOM      2  C   UNL     1     -30.936  -9.741  17.429  0.00  0.00    +0.030 A 
ATOM      3  C   UNL     1     -29.919 -10.686  17.575  0.00  0.00    +0.031 A 
ATOM      4  C   UNL     1     -30.145 -11.854  18.315  0.00  0.00    +0.109 A 
ATOM      5  C   UNL     1     -31.378 -12.043  18.954  0.00  0.00    +0.031 A 
ATOM      6  C   UNL     1     -32.396 -11.096  18.807  0.00  0.00    +0.030 A 
ENDROOT
BRANCH   1   8
ATOM      7  O   UNL     1     -33.421  -7.645  18.528  0.00  0.00    -0.153 OA
ATOM      8  S   UNL     1     -33.517  -8.863  17.654  0.00  0.00    +0.058 S 
ATOM      9  O   UNL     1     -34.834  -9.539  17.916  0.00  0.00    -0.153 OA
BRANCH   8  10
ATOM     10  N   UNL     1     -33.426  -8.386  15.984  0.00  0.00    -0.190 NA
ATOM     11  H   UNL     1     -32.425  -8.511  15.708  0.00  0.00    +0.148 HD
BRANCH  10  12
ATOM     12  C   UNL     1     -34.239  -9.295  15.166  0.00  0.00    +0.109 C 
BRANCH  12  13
ATOM     13  C   UNL     1     -33.447 -10.506  14.631  0.00  0.00    +0.005 C 
ATOM     14  C   UNL     1     -34.273 -11.426  13.740  0.00  0.00    +0.005 C 
ATOM     15  C   UNL     1     -33.788 -11.921  15.091  0.00  0.00    +0.005 C 
ENDBRANCH  12  13
ENDBRANCH  10  12
ENDBRANCH   8  10
ENDBRANCH   1   8
BRANCH   4  16
ATOM     16  S   UNL     1     -28.937 -13.134  18.297  0.00  0.00    +0.073 S 
ATOM     17  O   UNL     1     -27.664 -12.593  17.706  0.00  0.00    -0.150 OA
ATOM     18  O   UNL     1     -28.661 -13.632  19.688  0.00  0.00    -0.150 OA
BRANCH  16  19
ATOM     19  N   UNL     1     -29.515 -14.452  17.325  0.00  0.00    -0.199 N 
ATOM     20  H   UNL     1     -29.698 -15.359  17.807  0.00  0.00    +0.175 HD
BRANCH  19  21
ATOM     21  C   UNL     1     -29.480 -14.436  15.889  0.00  0.00    +0.138 A 
ATOM     22  C   UNL     1     -30.620 -14.129  15.126  0.00  0.00    +0.045 A 
ATOM     23  C   UNL     1     -30.523 -14.082  13.734  0.00  0.00    +0.005 A 
ATOM     24  C   UNL     1     -29.306 -14.360  13.112  0.00  0.00    +0.020 A 
ATOM     25  C   UNL     1     -28.199 -14.689  13.897  0.00  0.00    +0.113 A 
ATOM     26  N   UNL     1     -28.309 -14.719  15.253  0.00  0.00    -0.239 NA
ENDBRANCH  19  21
ENDBRANCH  16  19
ENDBRANCH   4  16
TORSDOF 7
ENDMDL
MODEL 3
REMARK VINA RESULT:    -5.158      1.095      8.257
REMARK INTER + INTRA:          -8.181
REMARK INTER:                  -7.257
REMARK INTRA:                  -0.924
REMARK UNBOUND:                -0.912
REMARK  Name = 
REMARK  7 active torsions:
REMARK  status: ('A' for Active; 'I' for Inactive)
REMARK    1  A    between atoms: S_2  and  N_4
REMARK    2  A    between atoms: S_2  and  C_9
REMARK    3  A    between atoms: N_4  and  C_5
REMARK    4  A    between atoms: C_5  and  C_6
REMARK    5  A    between atoms: C_12  and  S_15
REMARK    6  A    between atoms: S_15  and  N_18
REMARK    7  A    between atoms: N_18  and  C_19
REMARK                            x       y       z     vdW  Elec       q    Type
REMARK                         _______ _______ _______ _____ _____    ______ ____
ROOT
ATOM      1  C   UNL     1     -32.622 -10.969  16.660  0.00  0.00    +0.105 A 
ATOM      2  C   UNL     1     -31.608 -10.041  16.399  0.00  0.00    +0.030 A 
ATOM      3  C   UNL     1     -30.324 -10.242  16.908  0.00  0.00    +0.031 A 
ATOM      4  C   UNL     1     -30.042 -11.377  17.679  0.00  0.00    +0.109 A 
ATOM      5  C   UNL     1     -31.067 -12.283  17.981  0.00  0.00    +0.031 A 
ATOM      6  C   UNL     1     -32.353 -12.082  17.470  0.00  0.00    +0.030 A 
ENDROOT
BRANCH   1   8
ATOM      7  O   UNL     1     -34.967  -9.720  16.475  0.00  0.00    -0.153 OA
ATOM      8  S   UNL     1     -34.169 -10.818  15.833  0.00  0.00    +0.058 S 
ATOM      9  O   UNL     1     -34.947 -12.101  15.937  0.00  0.00    -0.153 OA
BRANCH   8  10
ATOM     10  N   UNL     1     -33.896 -10.435  14.159  0.00  0.00    -0.190 NA
ATOM     11  H   UNL     1     -32.877 -10.215  14.081  0.00  0.00    +0.148 HD
BRANCH  10  12
ATOM     12  C   UNL     1     -34.170 -11.615  13.331  0.00  0.00    +0.109 C 
BRANCH  12  13
ATOM     13  C   UNL     1     -32.936 -12.109  12.547  0.00  0.00    +0.005 C 
ATOM     14  C   UNL     1     -33.118 -13.494  11.938  0.00  0.00    +0.005 C 
ATOM     15  C   UNL     1     -32.114 -13.291  13.058  0.00  0.00    +0.005 C 
ENDBRANCH  12  13
ENDBRANCH  10  12
ENDBRANCH   8  10
ENDBRANCH   1   8
BRANCH   4  16
ATOM     16  S   UNL     1     -28.374 -11.729  18.117  0.00  0.00    +0.073 S 
ATOM     17  O   UNL     1     -27.937 -12.979  17.405  0.00  0.00    -0.150 OA
ATOM     18  O   UNL     1     -27.465 -10.597  17.727  0.00  0.00    -0.150 OA
BRANCH  16  19
ATOM     19  N   UNL     1     -28.273 -11.974  19.833  0.00  0.00    -0.199 N 
ATOM     20  H   UNL     1     -28.736 -11.267  20.447  0.00  0.00    +0.175 HD
BRANCH  19  21
ATOM     21  C   UNL     1     -27.369 -12.914  20.436  0.00  0.00    +0.138 A 
ATOM     22  C   UNL     1     -27.746 -13.696  21.542  0.00  0.00    +0.045 A 
ATOM     23  C   UNL     1     -26.846 -14.628  22.062  0.00  0.00    +0.005 A 
ATOM     24  C   UNL     1     -25.578 -14.760  21.498  0.00  0.00    +0.020 A 
ATOM     25  C   UNL     1     -25.224 -13.948  20.418  0.00  0.00    +0.113 A 
ATOM     26  N   UNL     1     -26.118 -13.054  19.917  0.00  0.00    -0.239 NA
ENDBRANCH  19  21
ENDBRANCH  16  19
ENDBRANCH   4  16
TORSDOF 7
ENDMDL
MODEL 4
REMARK VINA RESULT:    -5.136      2.506      6.800
REMARK INTER + INTRA:          -8.149
REMARK INTER:                  -6.399
REMARK INTRA:                  -1.750
REMARK UNBOUND:                -0.912
REMARK  Name = 
REMARK  7 active torsions:
REMARK  status: ('A' for Active; 'I' for Inactive)
REMARK    1  A    between atoms: S_2  and  N_4
REMARK    2  A    between atoms: S_2  and  C_9
REMARK    3  A    between atoms: N_4  and  C_5
REMARK    4  A    between atoms: C_5  and  C_6
REMARK    5  A    between atoms: C_12  and  S_15
REMARK    6  A    between atoms: S_15  and  N_18
REMARK    7  A    between atoms: N_18  and  C_19
REMARK                            x       y       z     vdW  Elec       q    Type
REMARK                         _______ _______ _______ _____ _____    ______ ____
ROOT
ATOM      1  C   UNL     1     -32.538  -9.945  17.107  0.00  0.00    +0.105 A 
ATOM      2  C   UNL     1     -31.339  -9.748  16.412  0.00  0.00    +0.030 A 
ATOM      3  C   UNL     1     -30.135 -10.211  16.945  0.00  0.00    +0.031 A 
ATOM      4  C   UNL     1     -30.120 -10.880  18.175  0.00  0.00    +0.109 A 
ATOM      5  C   UNL     1     -31.313 -11.036  18.895  0.00  0.00    +0.031 A 
ATOM      6  C   UNL     1     -32.519 -10.573  18.361  0.00  0.00    +0.030 A 
ENDROOT
BRANCH   1   8
ATOM      7  O   UNL     1     -33.833  -8.502  15.279  0.00  0.00    -0.153 OA
ATOM      8  S   UNL     1     -34.067  -9.554  16.326  0.00  0.00    +0.058 S 
ATOM      9  O   UNL     1     -35.049  -9.020  17.332  0.00  0.00    -0.153 OA
BRANCH   8  10
ATOM     10  N   UNL     1     -34.716 -10.983  15.576  0.00  0.00    -0.190 NA
ATOM     11  H   UNL     1     -35.756 -10.884  15.632  0.00  0.00    +0.148 HD
BRANCH  10  12
ATOM     12  C   UNL     1     -34.338 -11.013  14.159  0.00  0.00    +0.109 C 
BRANCH  12  13
ATOM     13  C   UNL     1     -33.644 -12.326  13.740  0.00  0.00    +0.005 C 
ATOM     14  C   UNL     1     -32.311 -12.110  13.033  0.00  0.00    +0.005 C 
ATOM     15  C   UNL     1     -33.488 -12.685  12.264  0.00  0.00    +0.005 C 
ENDBRANCH  12  13
ENDBRANCH  10  12
ENDBRANCH   8  10
ENDBRANCH   1   8
BRANCH   4  16
ATOM     16  S   UNL     1     -28.636 -11.655  18.719  0.00  0.00    +0.073 S 
ATOM     17  O   UNL     1     -27.473 -11.042  17.989  0.00  0.00    -0.150 OA
ATOM     18  O   UNL     1     -28.443 -11.467  20.198  0.00  0.00    -0.150 OA
BRANCH  16  19
ATOM     19  N   UNL     1     -28.714 -13.353  18.366  0.00  0.00    -0.199 N 
ATOM     20  H   UNL     1     -28.206 -14.000  19.008  0.00  0.00    +0.175 HD
BRANCH  19  21
ATOM     21  C   UNL     1     -29.189 -13.868  17.112  0.00  0.00    +0.138 A 
ATOM     22  C   UNL     1     -30.549 -14.158  16.901  0.00  0.00    +0.045 A 
ATOM     23  C   UNL     1     -30.967 -14.613  15.648  0.00  0.00    +0.005 A 
ATOM     24  C   UNL     1     -30.034 -14.798  14.629  0.00  0.00    +0.020 A 
ATOM     25  C   UNL     1     -28.688 -14.528  14.879  0.00  0.00    +0.113 A 
ATOM     26  N   UNL     1     -28.299 -14.074  16.102  0.00  0.00    -0.239 NA
ENDBRANCH  19  21
ENDBRANCH  16  19
ENDBRANCH   4  16
TORSDOF 7
ENDMDL
MODEL 5
REMARK VINA RESULT:    -4.982      3.072      4.019
REMARK INTER + INTRA:          -7.932
REMARK INTER:                  -6.336
REMARK INTRA:                  -1.596
REMARK UNBOUND:                -0.912
REMARK  Name = 
REMARK  7 active torsions:
REMARK  status: ('A' for Active; 'I' for Inactive)
REMARK    1  A    between atoms: S_2  and  N_4
REMARK    2  A    between atoms: S_2  and  C_9
REMARK    3  A    between atoms: N_4  and  C_5
REMARK    4  A    between atoms: C_5  and  C_6
REMARK    5  A    between atoms: C_12  and  S_15
REMARK    6  A    between atoms: S_15  and  N_18
REMARK    7  A    between atoms: N_18  and  C_19
REMARK                            x       y       z     vdW  Elec       q    Type
REMARK                         _______ _______ _______ _____ _____    ______ ____
ROOT
ATOM      1  C   UNL     1     -29.903 -11.824  19.478  0.00  0.00    +0.105 A 
ATOM      2  C   UNL     1     -31.230 -11.915  19.912  0.00  0.00    +0.030 A 
ATOM      3  C   UNL     1     -32.068 -10.799  19.846  0.00  0.00    +0.031 A 
ATOM      4  C   UNL     1     -31.585  -9.586  19.341  0.00  0.00    +0.109 A 
ATOM      5  C   UNL     1     -30.243  -9.481  18.950  0.00  0.00    +0.031 A 
ATOM      6  C   UNL     1     -29.405 -10.598  19.014  0.00  0.00    +0.030 A 
ENDROOT
BRANCH   1   8
ATOM      7  O   UNL     1     -28.826 -13.922  20.717  0.00  0.00    -0.153 OA
ATOM      8  S   UNL     1     -28.928 -13.286  19.360  0.00  0.00    +0.058 S 
ATOM      9  O   UNL     1     -27.543 -12.956  18.879  0.00  0.00    -0.153 OA
BRANCH   8  10
ATOM     10  N   UNL     1     -29.682 -14.398  18.255  0.00  0.00    -0.190 NA
ATOM     11  H   UNL     1     -30.656 -14.535  18.612  0.00  0.00    +0.148 HD
BRANCH  10  12
ATOM     12  C   UNL     1     -29.769 -13.787  16.923  0.00  0.00    +0.109 C 
BRANCH  12  13
ATOM     13  C   UNL     1     -30.007 -14.814  15.796  0.00  0.00    +0.005 C 
ATOM     14  C   UNL     1     -28.935 -14.786  14.713  0.00  0.00    +0.005 C 
ATOM     15  C   UNL     1     -30.351 -14.349  14.383  0.00  0.00    +0.005 C 
ENDBRANCH  12  13
ENDBRANCH  10  12
ENDBRANCH   8  10
ENDBRANCH   1   8
BRANCH   4  16
ATOM     16  S   UNL     1     -32.710  -8.263  19.053  0.00  0.00    +0.073 S 
ATOM     17  O   UNL     1     -33.907  -8.440  19.946  0.00  0.00    -0.150 OA
ATOM     18  O   UNL     1     -32.067  -6.937  19.349  0.00  0.00    -0.150 OA
BRANCH  16  19
ATOM     19  N   UNL     1     -33.215  -8.292  17.392  0.00  0.00    -0.199 N 
ATOM     20  H   UNL     1     -33.702  -7.445  17.024  0.00  0.00    +0.175 HD
BRANCH  19  21
ATOM     21  C   UNL     1     -33.251  -9.496  16.608  0.00  0.00    +0.138 A 
ATOM     22  C   UNL     1     -32.245  -9.798  15.674  0.00  0.00    +0.045 A 
ATOM     23  C   UNL     1     -32.301 -11.003  14.971  0.00  0.00    +0.005 A 
ATOM     24  C   UNL     1     -33.362 -11.883  15.182  0.00  0.00    +0.020 A 
ATOM     25  C   UNL     1     -34.360 -11.540  16.096  0.00  0.00    +0.113 A 
ATOM     26  N   UNL     1     -34.283 -10.367  16.782  0.00  0.00    -0.239 NA
ENDBRANCH  19  21
ENDBRANCH  16  19
ENDBRANCH   4  16
TORSDOF 7
ENDMDL
MODEL 6
REMARK VINA RESULT:    -4.860      3.316      6.440
REMARK INTER + INTRA:          -7.761
REMARK INTER:                  -6.063
REMARK INTRA:                  -1.698
REMARK UNBOUND:                -0.912
REMARK  Name = 
REMARK  7 active torsions:
REMARK  status: ('A' for Active; 'I' for Inactive)
REMARK    1  A    between atoms: S_2  and  N_4
REMARK    2  A    between atoms: S_2  and  C_9
REMARK    3  A    between atoms: N_4  and  C_5
REMARK    4  A    between atoms: C_5  and  C_6
REMARK    5  A    between atoms: C_12  and  S_15
REMARK    6  A    between atoms: S_15  and  N_18
REMARK    7  A    between atoms: N_18  and  C_19
REMARK                            x       y       z     vdW  Elec       q    Type
REMARK                         _______ _______ _______ _____ _____    ______ ____
ROOT
ATOM      1  C   UNL     1     -30.975  -9.477  19.755  0.00  0.00    +0.105 A 
ATOM      2  C   UNL     1     -30.000  -9.610  18.760  0.00  0.00    +0.030 A 
ATOM      3  C   UNL     1     -29.238 -10.777  18.676  0.00  0.00    +0.031 A 
ATOM      4  C   UNL     1     -29.450 -11.823  19.582  0.00  0.00    +0.109 A 
ATOM      5  C   UNL     1     -30.393 -11.672  20.607  0.00  0.00    +0.031 A 
ATOM      6  C   UNL     1     -31.157 -10.504  20.691  0.00  0.00    +0.030 A 
ENDROOT
BRANCH   1   8
ATOM      7  O   UNL     1     -31.335  -6.867  20.151  0.00  0.00    -0.153 OA
ATOM      8  S   UNL     1     -32.072  -8.100  19.714  0.00  0.00    +0.058 S 
ATOM      9  O   UNL     1     -33.229  -8.323  20.648  0.00  0.00    -0.153 OA
BRANCH   8  10
ATOM     10  N   UNL     1     -32.663  -7.878  18.093  0.00  0.00    -0.190 NA
ATOM     11  H   UNL     1     -31.941  -8.305  17.468  0.00  0.00    +0.148 HD
BRANCH  10  12
ATOM     12  C   UNL     1     -33.914  -8.626  17.917  0.00  0.00    +0.109 C 
BRANCH  12  13
ATOM     13  C   UNL     1     -33.799  -9.775  16.895  0.00  0.00    +0.005 C 
ATOM     14  C   UNL     1     -32.545  -9.697  16.032  0.00  0.00    +0.005 C 
ATOM     15  C   UNL     1     -33.909  -9.497  15.398  0.00  0.00    +0.005 C 
ENDBRANCH  12  13
ENDBRANCH  10  12
ENDBRANCH   8  10
ENDBRANCH   1   8
BRANCH   4  16
ATOM     16  S   UNL     1     -28.647 -13.367  19.320  0.00  0.00    +0.073 S 
ATOM     17  O   UNL     1     -27.392 -13.134  18.525  0.00  0.00    -0.150 OA
ATOM     18  O   UNL     1     -28.287 -14.014  20.629  0.00  0.00    -0.150 OA
BRANCH  16  19
ATOM     19  N   UNL     1     -29.707 -14.421  18.437  0.00  0.00    -0.199 N 
ATOM     20  H   UNL     1     -29.911 -15.356  18.855  0.00  0.00    +0.175 HD
BRANCH  19  21
ATOM     21  C   UNL     1     -30.075 -14.189  17.068  0.00  0.00    +0.138 A 
ATOM     22  C   UNL     1     -31.285 -13.560  16.725  0.00  0.00    +0.045 A 
ATOM     23  C   UNL     1     -31.575 -13.315  15.381  0.00  0.00    +0.005 A 
ATOM     24  C   UNL     1     -30.678 -13.717  14.392  0.00  0.00    +0.020 A 
ATOM     25  C   UNL     1     -29.498 -14.365  14.764  0.00  0.00    +0.113 A 
ATOM     26  N   UNL     1     -29.226 -14.584  16.079  0.00  0.00    -0.239 NA
ENDBRANCH  19  21
ENDBRANCH  16  19
ENDBRANCH   4  16
TORSDOF 7
ENDMDL
MODEL 7
REMARK VINA RESULT:    -4.826      2.356      7.700
REMARK INTER + INTRA:          -7.713
REMARK INTER:                  -6.168
REMARK INTRA:                  -1.545
REMARK UNBOUND:                -0.912
REMARK  Name = 
REMARK  7 active torsions:
REMARK  status: ('A' for Active; 'I' for Inactive)
REMARK    1  A    between atoms: S_2  and  N_4
REMARK    2  A    between atoms: S_2  and  C_9
REMARK    3  A    between atoms: N_4  and  C_5
REMARK    4  A    between atoms: C_5  and  C_6
REMARK    5  A    between atoms: C_12  and  S_15
REMARK    6  A    between atoms: S_15  and  N_18
REMARK    7  A    between atoms: N_18  and  C_19
REMARK                            x       y       z     vdW  Elec       q    Type
REMARK                         _______ _______ _______ _____ _____    ______ ____
ROOT
ATOM      1  C   UNL     1     -32.409 -11.068  16.243  0.00  0.00    +0.105 A 
ATOM      2  C   UNL     1     -32.026 -12.334  16.702  0.00  0.00    +0.030 A 
ATOM      3  C   UNL     1     -30.758 -12.525  17.255  0.00  0.00    +0.031 A 
ATOM      4  C   UNL     1     -29.866 -11.451  17.359  0.00  0.00    +0.109 A 
ATOM      5  C   UNL     1     -30.231 -10.194  16.858  0.00  0.00    +0.031 A 
ATOM      6  C   UNL     1     -31.501 -10.002  16.305  0.00  0.00    +0.030 A 
ENDROOT
BRANCH   1   8
ATOM      7  O   UNL     1     -34.601  -9.568  16.448  0.00  0.00    -0.153 OA
ATOM      8  S   UNL     1     -34.078 -10.793  15.754  0.00  0.00    +0.058 S 
ATOM      9  O   UNL     1     -34.938 -11.965  16.138  0.00  0.00    -0.153 OA
BRANCH   8  10
ATOM     10  N   UNL     1     -34.146 -10.558  14.032  0.00  0.00    -0.190 NA
ATOM     11  H   UNL     1     -33.221 -10.149  13.765  0.00  0.00    +0.148 HD
BRANCH  10  12
ATOM     12  C   UNL     1     -34.279 -11.856  13.361  0.00  0.00    +0.109 C 
BRANCH  12  13
ATOM     13  C   UNL     1     -33.102 -12.177  12.417  0.00  0.00    +0.005 C 
ATOM     14  C   UNL     1     -33.085 -13.625  11.939  0.00  0.00    +0.005 C 
ATOM     15  C   UNL     1     -31.987 -13.122  12.859  0.00  0.00    +0.005 C 
ENDBRANCH  12  13
ENDBRANCH  10  12
ENDBRANCH   8  10
ENDBRANCH   1   8
BRANCH   4  16
ATOM     16  S   UNL     1     -28.369 -11.658  18.262  0.00  0.00    +0.073 S 
ATOM     17  O   UNL     1     -27.821 -13.031  17.988  0.00  0.00    -0.150 OA
ATOM     18  O   UNL     1     -27.350 -10.631  17.854  0.00  0.00    -0.150 OA
BRANCH  16  19
ATOM     19  N   UNL     1     -28.697 -11.491  19.959  0.00  0.00    -0.199 N 
ATOM     20  H   UNL     1     -28.117 -12.057  20.618  0.00  0.00    +0.175 HD
BRANCH  19  21
ATOM     21  C   UNL     1     -29.879 -10.851  20.466  0.00  0.00    +0.138 A 
ATOM     22  C   UNL     1     -30.892 -11.579  21.115  0.00  0.00    +0.045 A 
ATOM     23  C   UNL     1     -32.000 -10.904  21.631  0.00  0.00    +0.005 A 
ATOM     24  C   UNL     1     -32.104  -9.521  21.480  0.00  0.00    +0.020 A 
ATOM     25  C   UNL     1     -31.094  -8.831  20.806  0.00  0.00    +0.113 A 
ATOM     26  N   UNL     1     -30.016  -9.504  20.320  0.00  0.00    -0.239 NA
ENDBRANCH  19  21
ENDBRANCH  16  19
ENDBRANCH   4  16
TORSDOF 7
ENDMDL
MODEL 8
REMARK VINA RESULT:    -4.651      3.133      3.756
REMARK INTER + INTRA:          -7.466
REMARK INTER:                  -5.720
REMARK INTRA:                  -1.746
REMARK UNBOUND:                -0.912
REMARK  Name = 
REMARK  7 active torsions:
REMARK  status: ('A' for Active; 'I' for Inactive)
REMARK    1  A    between atoms: S_2  and  N_4
REMARK    2  A    between atoms: S_2  and  C_9
REMARK    3  A    between atoms: N_4  and  C_5
REMARK    4  A    between atoms: C_5  and  C_6
REMARK    5  A    between atoms: C_12  and  S_15
REMARK    6  A    between atoms: S_15  and  N_18
REMARK    7  A    between atoms: N_18  and  C_19
REMARK                            x       y       z     vdW  Elec       q    Type
REMARK                         _______ _______ _______ _____ _____    ______ ____
ROOT
ATOM      1  C   UNL     1     -31.205  -9.928  18.600  0.00  0.00    +0.105 A 
ATOM      2  C   UNL     1     -32.425 -10.611  18.564  0.00  0.00    +0.030 A 
ATOM      3  C   UNL     1     -32.864 -11.203  17.378  0.00  0.00    +0.031 A 
ATOM      4  C   UNL     1     -32.081 -11.122  16.220  0.00  0.00    +0.109 A 
ATOM      5  C   UNL     1     -30.881 -10.398  16.242  0.00  0.00    +0.031 A 
ATOM      6  C   UNL     1     -30.442  -9.806  17.430  0.00  0.00    +0.030 A 
ENDROOT
BRANCH   1   8
ATOM      7  O   UNL     1     -31.622  -9.531  21.201  0.00  0.00    -0.153 OA
ATOM      8  S   UNL     1     -30.564  -9.379  20.146  0.00  0.00    +0.058 S 
ATOM      9  O   UNL     1     -30.169  -7.931  20.066  0.00  0.00    -0.153 OA
BRANCH   8  10
ATOM     10  N   UNL     1     -29.178 -10.340  20.573  0.00  0.00    -0.190 NA
ATOM     11  H   UNL     1     -28.756  -9.873  21.408  0.00  0.00    +0.148 HD
BRANCH  10  12
ATOM     12  C   UNL     1     -29.613 -11.683  20.975  0.00  0.00    +0.109 C 
BRANCH  12  13
ATOM     13  C   UNL     1     -28.836 -12.813  20.267  0.00  0.00    +0.005 C 
ATOM     14  C   UNL     1     -28.097 -12.351  19.016  0.00  0.00    +0.005 C 
ATOM     15  C   UNL     1     -29.269 -13.308  18.889  0.00  0.00    +0.005 C 
ENDBRANCH  12  13
ENDBRANCH  10  12
ENDBRANCH   8  10
ENDBRANCH   1   8
BRANCH   4  16
ATOM     16  S   UNL     1     -32.536 -12.063  14.803  0.00  0.00    +0.073 S 
ATOM     17  O   UNL     1     -34.036 -12.109  14.711  0.00  0.00    -0.150 OA
ATOM     18  O   UNL     1     -31.984 -11.446  13.549  0.00  0.00    -0.150 OA
BRANCH  16  19
ATOM     19  N   UNL     1     -31.915 -13.676  14.966  0.00  0.00    -0.199 N 
ATOM     20  H   UNL     1     -32.369 -14.297  15.672  0.00  0.00    +0.175 HD
BRANCH  19  21
ATOM     21  C   UNL     1     -30.662 -14.091  14.397  0.00  0.00    +0.138 A 
ATOM     22  C   UNL     1     -29.545 -14.377  15.202  0.00  0.00    +0.045 A 
ATOM     23  C   UNL     1     -28.364 -14.821  14.604  0.00  0.00    +0.005 A 
ATOM     24  C   UNL     1     -28.295 -14.957  13.218  0.00  0.00    +0.020 A 
ATOM     25  C   UNL     1     -29.413 -14.637  12.445  0.00  0.00    +0.113 A 
ATOM     26  N   UNL     1     -30.559 -14.217  13.045  0.00  0.00    -0.239 NA
ENDBRANCH  19  21
ENDBRANCH  16  19
ENDBRANCH   4  16
TORSDOF 7
ENDMDL
MODEL 9
REMARK VINA RESULT:    -4.120      2.178      2.762
REMARK INTER + INTRA:          -6.718
REMARK INTER:                  -5.676
REMARK INTRA:                  -1.042
REMARK UNBOUND:                -0.912
REMARK  Name = 
REMARK  7 active torsions:
REMARK  status: ('A' for Active; 'I' for Inactive)
REMARK    1  A    between atoms: S_2  and  N_4
REMARK    2  A    between atoms: S_2  and  C_9
REMARK    3  A    between atoms: N_4  and  C_5
REMARK    4  A    between atoms: C_5  and  C_6
REMARK    5  A    between atoms: C_12  and  S_15
REMARK    6  A    between atoms: S_15  and  N_18
REMARK    7  A    between atoms: N_18  and  C_19
REMARK                            x       y       z     vdW  Elec       q    Type
REMARK                         _______ _______ _______ _____ _____    ______ ____
ROOT
ATOM      1  C   UNL     1     -30.026 -11.901  18.800  0.00  0.00    +0.105 A 
ATOM      2  C   UNL     1     -30.090 -10.577  18.348  0.00  0.00    +0.030 A 
ATOM      3  C   UNL     1     -31.275  -9.850  18.470  0.00  0.00    +0.031 A 
ATOM      4  C   UNL     1     -32.406 -10.439  19.050  0.00  0.00    +0.109 A 
ATOM      5  C   UNL     1     -32.357 -11.779  19.460  0.00  0.00    +0.031 A 
ATOM      6  C   UNL     1     -31.170 -12.507  19.339  0.00  0.00    +0.030 A 
ENDROOT
BRANCH   1   8
ATOM      7  O   UNL     1     -27.444 -11.819  19.451  0.00  0.00    -0.153 OA
ATOM      8  S   UNL     1     -28.472 -12.728  18.841  0.00  0.00    +0.058 S 
ATOM      9  O   UNL     1     -28.031 -13.086  17.449  0.00  0.00    -0.153 OA
BRANCH   8  10
ATOM     10  N   UNL     1     -28.610 -14.173  19.800  0.00  0.00    -0.190 NA
ATOM     11  H   UNL     1     -28.258 -14.949  19.194  0.00  0.00    +0.148 HD
BRANCH  10  12
ATOM     12  C   UNL     1     -27.730 -14.075  20.970  0.00  0.00    +0.109 C 
BRANCH  12  13
ATOM     13  C   UNL     1     -26.396 -14.831  20.794  0.00  0.00    +0.005 C 
ATOM     14  C   UNL     1     -25.400 -14.576  21.919  0.00  0.00    +0.005 C 
ATOM     15  C   UNL     1     -25.102 -14.068  20.520  0.00  0.00    +0.005 C 
ENDBRANCH  12  13
ENDBRANCH  10  12
ENDBRANCH   8  10
ENDBRANCH   1   8
BRANCH   4  16
ATOM     16  S   UNL     1     -33.813  -9.442  19.403  0.00  0.00    +0.073 S 
ATOM     17  O   UNL     1     -34.303  -9.766  20.787  0.00  0.00    -0.150 OA
ATOM     18  O   UNL     1     -33.467  -7.981  19.333  0.00  0.00    -0.150 OA
BRANCH  16  19
ATOM     19  N   UNL     1     -35.063  -9.788  18.248  0.00  0.00    -0.199 N 
ATOM     20  H   UNL     1     -36.017  -9.991  18.621  0.00  0.00    +0.175 HD
BRANCH  19  21
ATOM     21  C   UNL     1     -34.791 -10.080  16.868  0.00  0.00    +0.138 A 
ATOM     22  C   UNL     1     -34.693  -9.061  15.904  0.00  0.00    +0.045 A 
ATOM     23  C   UNL     1     -34.381  -9.394  14.584  0.00  0.00    +0.005 A 
ATOM     24  C   UNL     1     -34.193 -10.729  14.229  0.00  0.00    +0.020 A 
ATOM     25  C   UNL     1     -34.325 -11.719  15.205  0.00  0.00    +0.113 A 
ATOM     26  N   UNL     1     -34.617 -11.376  16.488  0.00  0.00    -0.239 NA
ENDBRANCH  19  21
ENDBRANCH  16  19
ENDBRANCH   4  16
TORSDOF 7
ENDMDL
