MODEL 1
REMARK VINA RESULT:    -5.784      0.000      0.000
REMARK INTER + INTRA:         -11.367
REMARK INTER:                  -8.489
REMARK INTRA:                  -2.878
REMARK UNBOUND:                -2.878
REMARK  Name = 
REMARK  9 active torsions:
REMARK  status: ('A' for Active; 'I' for Inactive)
REMARK    1  A    between atoms: C_2  and  OXT_3
REMARK    2  A    between atoms: C_2  and  CA_4
REMARK    3  A    between atoms: CA_4  and  CB_5
REMARK    4  A    between atoms: CA_4  and  N_13
REMARK    5  A    between atoms: CB_5  and  CG_6
REMARK    6  A    between atoms: CZ_9  and  OH_10
REMARK    7  A    between atoms: C_14  and  C_16
REMARK    8  A    between atoms: C_16  and  C_17
REMARK    9  A    between atoms: C_16  and  C_23
REMARK                            x       y       z     vdW  Elec       q    Type
REMARK                         _______ _______ _______ _____ _____    ______ ____
ROOT
ATOM      1  N   TYR A   1     -29.246 -13.787  19.000  0.00  0.00    -0.301 N 
ATOM      2  C   UNK A   0     -29.095 -13.524  17.596  0.00  0.00    +0.225 C 
ATOM      3  O   UNK A   0     -28.033 -12.997  17.164  0.00  0.00    -0.275 OA
ATOM      4  H   TYR A   1     -30.150 -14.200  19.327  0.00  0.00    +0.150 HD
ENDROOT
BRANCH   1   5
ATOM      5  CA  TYR A   1     -28.283 -13.307  19.993  0.00  0.00    +0.186 C 
BRANCH   5   7
ATOM      6  O   TYR A   1     -27.724 -15.038  21.565  0.00  0.00    -0.249 OA
ATOM      7  C   TYR A   1     -27.438 -14.452  20.486  0.00  0.00    +0.326 C 
BRANCH   7   8
ATOM      8  OXT TYR A   1     -26.325 -14.854  19.754  0.00  0.00    -0.479 OA
ATOM      9  HXT TYR A   1     -25.889 -15.753  19.923  0.00  0.00    +0.295 HD
ENDBRANCH   7   8
ENDBRANCH   5   7
BRANCH   5  10
ATOM     10  CB  TYR A   1     -29.030 -12.622  21.152  0.00  0.00    +0.069 C 
BRANCH  10  11
ATOM     11  CG  TYR A   1     -29.999 -11.581  20.651  0.00  0.00    -0.045 A 
ATOM     12  CD1 TYR A   1     -31.369 -11.680  20.952  0.00  0.00    +0.007 A 
ATOM     13  CE1 TYR A   1     -32.259 -10.695  20.513  0.00  0.00    +0.045 A 
ATOM     14  CZ  TYR A   1     -31.791  -9.602  19.776  0.00  0.00    +0.117 A 
ATOM     15  CE2 TYR A   1     -30.426  -9.495  19.480  0.00  0.00    +0.045 A 
ATOM     16  CD2 TYR A   1     -29.533 -10.478  19.917  0.00  0.00    +0.007 A 
BRANCH  14  17
ATOM     17  OH  TYR A   1     -32.690  -8.628  19.346  0.00  0.00    -0.507 OA
ATOM     18  HH  TYR A   1     -33.667  -8.844  19.180  0.00  0.00    +0.292 HD
ENDBRANCH  14  17
ENDBRANCH  10  11
ENDBRANCH   5  10
ENDBRANCH   1   5
BRANCH   2  19
ATOM     19  C   UNK A   0     -30.231 -13.856  16.652  0.00  0.00    +0.135 C 
BRANCH  19  20
ATOM     20  C   UNK A   0     -31.251 -12.735  16.561  0.00  0.00    -0.031 A 
ATOM     21  C   UNK A   0     -30.859 -11.488  16.039  0.00  0.00    +0.005 A 
ATOM     22  C   UNK A   0     -31.770 -10.429  15.970  0.00  0.00    +0.000 A 
ATOM     23  C   UNK A   0     -33.078 -10.598  16.431  0.00  0.00    +0.000 A 
ATOM     24  C   UNK A   0     -33.476 -11.825  16.967  0.00  0.00    +0.000 A 
ATOM     25  C   UNK A   0     -32.570 -12.887  17.040  0.00  0.00    +0.005 A 
ENDBRANCH  19  20
BRANCH  19  26
ATOM     26  C   UNK A   0     -29.747 -14.260  15.269  0.00  0.00    -0.031 A 
ATOM     27  C   UNK A   0     -28.423 -14.694  15.057  0.00  0.00    +0.005 A 
ATOM     28  C   UNK A   0     -27.994 -15.062  13.778  0.00  0.00    +0.000 A 
ATOM     29  C   UNK A   0     -28.878 -15.003  12.698  0.00  0.00    +0.000 A 
ATOM     30  C   UNK A   0     -30.193 -14.578  12.896  0.00  0.00    +0.000 A 
ATOM     31  C   UNK A   0     -30.629 -14.210  14.172  0.00  0.00    +0.005 A 
ENDBRANCH  19  26
ENDBRANCH   2  19
TORSDOF 9
ENDMDL
MODEL 2
REMARK VINA RESULT:    -5.370      0.572      1.672
REMARK INTER + INTRA:         -10.759
REMARK INTER:                  -8.195
REMARK INTRA:                  -2.564
REMARK UNBOUND:                -2.878
REMARK  Name = 
REMARK  9 active torsions:
REMARK  status: ('A' for Active; 'I' for Inactive)
REMARK    1  A    between atoms: C_2  and  OXT_3
REMARK    2  A    between atoms: C_2  and  CA_4
REMARK    3  A    between atoms: CA_4  and  CB_5
REMARK    4  A    between atoms: CA_4  and  N_13
REMARK    5  A    between atoms: CB_5  and  CG_6
REMARK    6  A    between atoms: CZ_9  and  OH_10
REMARK    7  A    between atoms: C_14  and  C_16
REMARK    8  A    between atoms: C_16  and  C_17
REMARK    9  A    between atoms: C_16  and  C_23
REMARK                            x       y       z     vdW  Elec       q    Type
REMARK                         _______ _______ _______ _____ _____    ______ ____
ROOT
ATOM      1  N   TYR A   1     -29.668 -13.196  19.086  0.00  0.00    -0.301 N 
ATOM      2  C   UNK A   0     -29.378 -13.316  17.684  0.00  0.00    +0.225 C 
ATOM      3  O   UNK A   0     -28.192 -13.189  17.272  0.00  0.00    -0.275 OA
ATOM      4  H   TYR A   1     -30.665 -13.280  19.390  0.00  0.00    +0.150 HD
ENDROOT
BRANCH   1   5
ATOM      5  CA  TYR A   1     -28.663 -12.754  20.056  0.00  0.00    +0.186 C 
BRANCH   5   7
ATOM      6  O   TYR A   1     -28.106 -14.535  21.572  0.00  0.00    -0.249 OA
ATOM      7  C   TYR A   1     -27.830 -13.926  20.503  0.00  0.00    +0.326 C 
BRANCH   7   8
ATOM      8  OXT TYR A   1     -26.738 -14.328  19.740  0.00  0.00    -0.479 OA
ATOM      9  HXT TYR A   1     -26.758 -14.262  18.730  0.00  0.00    +0.295 HD
ENDBRANCH   7   8
ENDBRANCH   5   7
BRANCH   5  10
ATOM     10  CB  TYR A   1     -29.359 -12.073  21.249  0.00  0.00    +0.069 C 
BRANCH  10  11
ATOM     11  CG  TYR A   1     -30.475 -11.165  20.798  0.00  0.00    -0.045 A 
ATOM     12  CD1 TYR A   1     -30.187  -9.912  20.231  0.00  0.00    +0.007 A 
ATOM     13  CE1 TYR A   1     -31.224  -9.086  19.784  0.00  0.00    +0.045 A 
ATOM     14  CZ  TYR A   1     -32.554  -9.507  19.893  0.00  0.00    +0.117 A 
ATOM     15  CE2 TYR A   1     -32.845 -10.759  20.451  0.00  0.00    +0.045 A 
ATOM     16  CD2 TYR A   1     -31.811 -11.585  20.900  0.00  0.00    +0.007 A 
BRANCH  14  17
ATOM     17  OH  TYR A   1     -33.577  -8.674  19.442  0.00  0.00    -0.507 OA
ATOM     18  HH  TYR A   1     -34.553  -8.924  19.557  0.00  0.00    +0.292 HD
ENDBRANCH  14  17
ENDBRANCH  10  11
ENDBRANCH   5  10
ENDBRANCH   1   5
BRANCH   2  19
ATOM     19  C   UNK A   0     -30.510 -13.564  16.711  0.00  0.00    +0.135 C 
BRANCH  19  20
ATOM     20  C   UNK A   0     -31.427 -12.360  16.575  0.00  0.00    -0.031 A 
ATOM     21  C   UNK A   0     -32.811 -12.524  16.766  0.00  0.00    +0.005 A 
ATOM     22  C   UNK A   0     -33.682 -11.439  16.619  0.00  0.00    +0.000 A 
ATOM     23  C   UNK A   0     -33.183 -10.183  16.268  0.00  0.00    +0.000 A 
ATOM     24  C   UNK A   0     -31.813 -10.009  16.059  0.00  0.00    +0.000 A 
ATOM     25  C   UNK A   0     -30.938 -11.089  16.203  0.00  0.00    +0.005 A 
ENDBRANCH  19  20
BRANCH  19  26
ATOM     26  C   UNK A   0     -30.024 -14.028  15.348  0.00  0.00    -0.031 A 
ATOM     27  C   UNK A   0     -30.818 -13.861  14.195  0.00  0.00    +0.005 A 
ATOM     28  C   UNK A   0     -30.356 -14.294  12.948  0.00  0.00    +0.000 A 
ATOM     29  C   UNK A   0     -29.100 -14.895  12.836  0.00  0.00    +0.000 A 
ATOM     30  C   UNK A   0     -28.303 -15.062  13.970  0.00  0.00    +0.000 A 
ATOM     31  C   UNK A   0     -28.758 -14.631  15.219  0.00  0.00    +0.005 A 
ENDBRANCH  19  26
ENDBRANCH   2  19
TORSDOF 9
ENDMDL
MODEL 3
REMARK VINA RESULT:    -5.182      2.049      5.146
REMARK INTER + INTRA:         -10.483
REMARK INTER:                  -7.378
REMARK INTRA:                  -3.105
REMARK UNBOUND:                -2.878
REMARK  Name = 
REMARK  9 active torsions:
REMARK  status: ('A' for Active; 'I' for Inactive)
REMARK    1  A    between atoms: C_2  and  OXT_3
REMARK    2  A    between atoms: C_2  and  CA_4
REMARK    3  A    between atoms: CA_4  and  CB_5
REMARK    4  A    between atoms: CA_4  and  N_13
REMARK    5  A    between atoms: CB_5  and  CG_6
REMARK    6  A    between atoms: CZ_9  and  OH_10
REMARK    7  A    between atoms: C_14  and  C_16
REMARK    8  A    between atoms: C_16  and  C_17
REMARK    9  A    between atoms: C_16  and  C_23
REMARK                            x       y       z     vdW  Elec       q    Type
REMARK                         _______ _______ _______ _____ _____    ______ ____
ROOT
ATOM      1  N   TYR A   1     -32.258 -10.041  17.999  0.00  0.00    -0.301 N 
ATOM      2  C   UNK A   0     -33.538 -10.662  17.804  0.00  0.00    +0.225 C 
ATOM      3  O   UNK A   0     -34.507 -10.357  18.552  0.00  0.00    -0.275 OA
ATOM      4  H   TYR A   1     -31.469 -10.337  17.379  0.00  0.00    +0.150 HD
ENDROOT
BRANCH   1   5
ATOM      5  CA  TYR A   1     -31.972  -9.186  19.154  0.00  0.00    +0.186 C 
BRANCH   5   7
ATOM      6  O   TYR A   1     -32.002  -6.814  19.545  0.00  0.00    -0.249 OA
ATOM      7  C   TYR A   1     -32.467  -7.788  18.893  0.00  0.00    +0.326 C 
BRANCH   7   8
ATOM      8  OXT TYR A   1     -33.456  -7.572  17.937  0.00  0.00    -0.479 OA
ATOM      9  HXT TYR A   1     -34.220  -8.226  17.825  0.00  0.00    +0.295 HD
ENDBRANCH   7   8
ENDBRANCH   5   7
BRANCH   5  10
ATOM     10  CB  TYR A   1     -30.461  -9.201  19.449  0.00  0.00    +0.069 C 
BRANCH  10  11
ATOM     11  CG  TYR A   1     -29.930 -10.607  19.562  0.00  0.00    -0.045 A 
ATOM     12  CD1 TYR A   1     -28.811 -11.008  18.812  0.00  0.00    +0.007 A 
ATOM     13  CE1 TYR A   1     -28.302 -12.304  18.944  0.00  0.00    +0.045 A 
ATOM     14  CZ  TYR A   1     -28.899 -13.207  19.829  0.00  0.00    +0.117 A 
ATOM     15  CE2 TYR A   1     -30.010 -12.810  20.585  0.00  0.00    +0.045 A 
ATOM     16  CD2 TYR A   1     -30.522 -11.515  20.454  0.00  0.00    +0.007 A 
BRANCH  14  17
ATOM     17  OH  TYR A   1     -28.380 -14.494  19.951  0.00  0.00    -0.507 OA
ATOM     18  HH  TYR A   1     -28.750 -15.269  19.411  0.00  0.00    +0.292 HD
ENDBRANCH  14  17
ENDBRANCH  10  11
ENDBRANCH   5  10
ENDBRANCH   1   5
BRANCH   2  19
ATOM     19  C   UNK A   0     -33.700 -11.703  16.717  0.00  0.00    +0.135 C 
BRANCH  19  20
ATOM     20  C   UNK A   0     -34.160 -11.096  15.402  0.00  0.00    -0.031 A 
ATOM     21  C   UNK A   0     -34.258 -11.915  14.263  0.00  0.00    +0.005 A 
ATOM     22  C   UNK A   0     -34.652 -11.377  13.033  0.00  0.00    +0.000 A 
ATOM     23  C   UNK A   0     -34.941 -10.014  12.925  0.00  0.00    +0.000 A 
ATOM     24  C   UNK A   0     -34.833  -9.186  14.044  0.00  0.00    +0.000 A 
ATOM     25  C   UNK A   0     -34.438  -9.717  15.275  0.00  0.00    +0.005 A 
ENDBRANCH  19  20
BRANCH  19  26
ATOM     26  C   UNK A   0     -32.449 -12.542  16.514  0.00  0.00    -0.031 A 
ATOM     27  C   UNK A   0     -31.451 -12.154  15.597  0.00  0.00    +0.005 A 
ATOM     28  C   UNK A   0     -30.306 -12.937  15.423  0.00  0.00    +0.000 A 
ATOM     29  C   UNK A   0     -30.142 -14.113  16.159  0.00  0.00    +0.000 A 
ATOM     30  C   UNK A   0     -31.122 -14.507  17.072  0.00  0.00    +0.000 A 
ATOM     31  C   UNK A   0     -32.269 -13.727  17.253  0.00  0.00    +0.005 A 
ENDBRANCH  19  26
ENDBRANCH   2  19
TORSDOF 9
ENDMDL
MODEL 4
REMARK VINA RESULT:    -4.956      2.344      5.537
REMARK INTER + INTRA:         -10.152
REMARK INTER:                  -7.228
REMARK INTRA:                  -2.924
REMARK UNBOUND:                -2.878
REMARK  Name = 
REMARK  9 active torsions:
REMARK  status: ('A' for Active; 'I' for Inactive)
REMARK    1  A    between atoms: C_2  and  OXT_3
REMARK    2  A    between atoms: C_2  and  CA_4
REMARK    3  A    between atoms: CA_4  and  CB_5
REMARK    4  A    between atoms: CA_4  and  N_13
REMARK    5  A    between atoms: CB_5  and  CG_6
REMARK    6  A    between atoms: CZ_9  and  OH_10
REMARK    7  A    between atoms: C_14  and  C_16
REMARK    8  A    between atoms: C_16  and  C_17
REMARK    9  A    between atoms: C_16  and  C_23
REMARK                            x       y       z     vdW  Elec       q    Type
REMARK                         _______ _______ _______ _____ _____    ______ ____
ROOT
ATOM      1  N   TYR A   1     -31.187 -11.056  19.031  0.00  0.00    -0.301 N 
ATOM      2  C   UNK A   0     -29.821 -11.096  19.475  0.00  0.00    +0.225 C 
ATOM      3  O   UNK A   0     -29.422 -10.287  20.359  0.00  0.00    -0.275 OA
ATOM      4  H   TYR A   1     -31.477 -11.721  18.278  0.00  0.00    +0.150 HD
ENDROOT
BRANCH   1   5
ATOM      5  CA  TYR A   1     -32.109  -9.992  19.435  0.00  0.00    +0.186 C 
BRANCH   5   7
ATOM      6  O   TYR A   1     -33.121 -11.685  20.809  0.00  0.00    -0.249 OA
ATOM      7  C   TYR A   1     -33.249 -10.573  20.228  0.00  0.00    +0.326 C 
BRANCH   7   8
ATOM      8  OXT TYR A   1     -34.458  -9.888  20.305  0.00  0.00    -0.479 OA
ATOM      9  HXT TYR A   1     -35.307 -10.363  20.588  0.00  0.00    +0.295 HD
ENDBRANCH   7   8
ENDBRANCH   5   7
BRANCH   5  10
ATOM     10  CB  TYR A   1     -32.616  -9.244  18.189  0.00  0.00    +0.069 C 
BRANCH  10  11
ATOM     11  CG  TYR A   1     -32.645 -10.139  16.976  0.00  0.00    -0.045 A 
ATOM     12  CD1 TYR A   1     -33.753 -10.967  16.728  0.00  0.00    +0.007 A 
ATOM     13  CE1 TYR A   1     -33.789 -11.772  15.585  0.00  0.00    +0.045 A 
ATOM     14  CZ  TYR A   1     -32.725 -11.753  14.677  0.00  0.00    +0.117 A 
ATOM     15  CE2 TYR A   1     -31.621 -10.923  14.916  0.00  0.00    +0.045 A 
ATOM     16  CD2 TYR A   1     -31.581 -10.118  16.059  0.00  0.00    +0.007 A 
BRANCH  14  17
ATOM     17  OH  TYR A   1     -32.775 -12.559  13.542  0.00  0.00    -0.507 OA
ATOM     18  HH  TYR A   1     -33.236 -13.462  13.553  0.00  0.00    +0.292 HD
ENDBRANCH  14  17
ENDBRANCH  10  11
ENDBRANCH   5  10
ENDBRANCH   1   5
BRANCH   2  19
ATOM     19  C   UNK A   0     -28.867 -12.091  18.852  0.00  0.00    +0.135 C 
BRANCH  19  20
ATOM     20  C   UNK A   0     -28.093 -12.879  19.895  0.00  0.00    -0.031 A 
ATOM     21  C   UNK A   0     -26.709 -13.069  19.727  0.00  0.00    +0.005 A 
ATOM     22  C   UNK A   0     -25.977 -13.814  20.657  0.00  0.00    +0.000 A 
ATOM     23  C   UNK A   0     -26.619 -14.388  21.757  0.00  0.00    +0.000 A 
ATOM     24  C   UNK A   0     -27.996 -14.222  21.927  0.00  0.00    +0.000 A 
ATOM     25  C   UNK A   0     -28.733 -13.479  21.001  0.00  0.00    +0.005 A 
ENDBRANCH  19  20
BRANCH  19  26
ATOM     26  C   UNK A   0     -29.551 -13.025  17.867  0.00  0.00    -0.031 A 
ATOM     27  C   UNK A   0     -28.943 -13.366  16.642  0.00  0.00    +0.005 A 
ATOM     28  C   UNK A   0     -29.585 -14.227  15.747  0.00  0.00    +0.000 A 
ATOM     29  C   UNK A   0     -30.838 -14.759  16.063  0.00  0.00    +0.000 A 
ATOM     30  C   UNK A   0     -31.449 -14.432  17.275  0.00  0.00    +0.000 A 
ATOM     31  C   UNK A   0     -30.811 -13.573  18.175  0.00  0.00    +0.005 A 
ENDBRANCH  19  26
ENDBRANCH   2  19
TORSDOF 9
ENDMDL
MODEL 5
REMARK VINA RESULT:    -4.751      1.717      5.387
REMARK INTER + INTRA:          -9.850
REMARK INTER:                  -6.848
REMARK INTRA:                  -3.003
REMARK UNBOUND:                -2.878
REMARK  Name = 
REMARK  9 active torsions:
REMARK  status: ('A' for Active; 'I' for Inactive)
REMARK    1  A    between atoms: C_2  and  OXT_3
REMARK    2  A    between atoms: C_2  and  CA_4
REMARK    3  A    between atoms: CA_4  and  CB_5
REMARK    4  A    between atoms: CA_4  and  N_13
REMARK    5  A    between atoms: CB_5  and  CG_6
REMARK    6  A    between atoms: CZ_9  and  OH_10
REMARK    7  A    between atoms: C_14  and  C_16
REMARK    8  A    between atoms: C_16  and  C_17
REMARK    9  A    between atoms: C_16  and  C_23
REMARK                            x       y       z     vdW  Elec       q    Type
REMARK                         _______ _______ _______ _____ _____    ______ ____
ROOT
ATOM      1  N   TYR A   1     -29.578 -13.053  16.518  0.00  0.00    -0.301 N 
ATOM      2  C   UNK A   0     -29.632 -13.362  17.919  0.00  0.00    +0.225 C 
ATOM      3  O   UNK A   0     -30.185 -14.427  18.310  0.00  0.00    -0.275 OA
ATOM      4  H   TYR A   1     -29.136 -12.149  16.231  0.00  0.00    +0.150 HD
ENDROOT
BRANCH   1   5
ATOM      5  CA  TYR A   1     -30.299 -13.842  15.516  0.00  0.00    +0.186 C 
BRANCH   5   7
ATOM      6  O   TYR A   1     -28.113 -14.670  14.953  0.00  0.00    -0.249 OA
ATOM      7  C   TYR A   1     -29.319 -14.540  14.609  0.00  0.00    +0.326 C 
BRANCH   7   8
ATOM      8  OXT TYR A   1     -29.744 -15.027  13.377  0.00  0.00    -0.479 OA
ATOM      9  HXT TYR A   1     -29.919 -16.016  13.243  0.00  0.00    +0.295 HD
ENDBRANCH   7   8
ENDBRANCH   5   7
BRANCH   5  10
ATOM     10  CB  TYR A   1     -31.248 -12.928  14.719  0.00  0.00    +0.069 C 
BRANCH  10  11
ATOM     11  CG  TYR A   1     -31.898 -11.895  15.604  0.00  0.00    -0.045 A 
ATOM     12  CD1 TYR A   1     -31.383 -10.589  15.672  0.00  0.00    +0.007 A 
ATOM     13  CE1 TYR A   1     -32.009  -9.626  16.469  0.00  0.00    +0.045 A 
ATOM     14  CZ  TYR A   1     -33.156  -9.954  17.199  0.00  0.00    +0.117 A 
ATOM     15  CE2 TYR A   1     -33.678 -11.253  17.129  0.00  0.00    +0.045 A 
ATOM     16  CD2 TYR A   1     -33.054 -12.219  16.334  0.00  0.00    +0.007 A 
BRANCH  14  17
ATOM     17  OH  TYR A   1     -33.770  -8.984  17.988  0.00  0.00    -0.507 OA
ATOM     18  HH  TYR A   1     -33.420  -8.033  18.027  0.00  0.00    +0.292 HD
ENDBRANCH  14  17
ENDBRANCH  10  11
ENDBRANCH   5  10
ENDBRANCH   1   5
BRANCH   2  19
ATOM     19  C   UNK A   0     -29.048 -12.385  18.917  0.00  0.00    +0.135 C 
BRANCH  19  20
ATOM     20  C   UNK A   0     -30.120 -11.561  19.611  0.00  0.00    -0.031 A 
ATOM     21  C   UNK A   0     -29.909 -10.184  19.808  0.00  0.00    +0.005 A 
ATOM     22  C   UNK A   0     -30.867  -9.407  20.469  0.00  0.00    +0.000 A 
ATOM     23  C   UNK A   0     -32.037  -9.997  20.951  0.00  0.00    +0.000 A 
ATOM     24  C   UNK A   0     -32.252 -11.366  20.777  0.00  0.00    +0.000 A 
ATOM     25  C   UNK A   0     -31.299 -12.148  20.119  0.00  0.00    +0.005 A 
ENDBRANCH  19  20
BRANCH  19  26
ATOM     26  C   UNK A   0     -28.140 -13.055  19.935  0.00  0.00    -0.031 A 
ATOM     27  C   UNK A   0     -28.654 -13.582  21.136  0.00  0.00    +0.005 A 
ATOM     28  C   UNK A   0     -27.805 -14.196  22.062  0.00  0.00    +0.000 A 
ATOM     29  C   UNK A   0     -26.436 -14.292  21.801  0.00  0.00    +0.000 A 
ATOM     30  C   UNK A   0     -25.915 -13.777  20.613  0.00  0.00    +0.000 A 
ATOM     31  C   UNK A   0     -26.759 -13.163  19.683  0.00  0.00    +0.005 A 
ENDBRANCH  19  26
ENDBRANCH   2  19
TORSDOF 9
ENDMDL
MODEL 6
REMARK VINA RESULT:    -4.651      2.100      5.289
REMARK INTER + INTRA:          -9.705
REMARK INTER:                  -7.188
REMARK INTRA:                  -2.517
REMARK UNBOUND:                -2.878
REMARK  Name = 
REMARK  9 active torsions:
REMARK  status: ('A' for Active; 'I' for Inactive)
REMARK    1  A    between atoms: C_2  and  OXT_3
REMARK    2  A    between atoms: C_2  and  CA_4
REMARK    3  A    between atoms: CA_4  and  CB_5
REMARK    4  A    between atoms: CA_4  and  N_13
REMARK    5  A    between atoms: CB_5  and  CG_6
REMARK    6  A    between atoms: CZ_9  and  OH_10
REMARK    7  A    between atoms: C_14  and  C_16
REMARK    8  A    between atoms: C_16  and  C_17
REMARK    9  A    between atoms: C_16  and  C_23
REMARK                            x       y       z     vdW  Elec       q    Type
REMARK                         _______ _______ _______ _____ _____    ______ ____
ROOT
ATOM      1  N   TYR A   1     -32.417 -10.528  17.881  0.00  0.00    -0.301 N 
ATOM      2  C   UNK A   0     -31.644 -10.085  16.755  0.00  0.00    +0.225 C 
ATOM      3  O   UNK A   0     -31.122  -8.935  16.763  0.00  0.00    -0.275 OA
ATOM      4  H   TYR A   1     -32.859 -11.476  17.830  0.00  0.00    +0.150 HD
ENDROOT
BRANCH   1   5
ATOM      5  CA  TYR A   1     -32.781  -9.632  18.981  0.00  0.00    +0.186 C 
BRANCH   5   7
ATOM      6  O   TYR A   1     -34.256  -8.103  17.857  0.00  0.00    -0.249 OA
ATOM      7  C   TYR A   1     -33.151  -8.277  18.440  0.00  0.00    +0.326 C 
BRANCH   7   8
ATOM      8  OXT TYR A   1     -32.262  -7.215  18.568  0.00  0.00    -0.479 OA
ATOM      9  HXT TYR A   1     -31.390  -7.326  19.072  0.00  0.00    +0.295 HD
ENDBRANCH   7   8
ENDBRANCH   5   7
BRANCH   5  10
ATOM     10  CB  TYR A   1     -31.612  -9.537  19.980  0.00  0.00    +0.069 C 
BRANCH  10  11
ATOM     11  CG  TYR A   1     -30.766 -10.785  19.967  0.00  0.00    -0.045 A 
ATOM     12  CD1 TYR A   1     -31.286 -12.003  20.436  0.00  0.00    +0.007 A 
ATOM     13  CE1 TYR A   1     -30.509 -13.165  20.392  0.00  0.00    +0.045 A 
ATOM     14  CZ  TYR A   1     -29.211 -13.123  19.874  0.00  0.00    +0.117 A 
ATOM     15  CE2 TYR A   1     -28.690 -11.912  19.398  0.00  0.00    +0.045 A 
ATOM     16  CD2 TYR A   1     -29.464 -10.749  19.441  0.00  0.00    +0.007 A 
BRANCH  14  17
ATOM     17  OH  TYR A   1     -28.448 -14.288  19.835  0.00  0.00    -0.507 OA
ATOM     18  HH  TYR A   1     -27.462 -14.269  19.601  0.00  0.00    +0.292 HD
ENDBRANCH  14  17
ENDBRANCH  10  11
ENDBRANCH   5  10
ENDBRANCH   1   5
BRANCH   2  19
ATOM     19  C   UNK A   0     -31.490 -10.994  15.555  0.00  0.00    +0.135 C 
BRANCH  19  20
ATOM     20  C   UNK A   0     -31.124 -12.414  15.951  0.00  0.00    -0.031 A 
ATOM     21  C   UNK A   0     -29.900 -12.955  15.520  0.00  0.00    +0.005 A 
ATOM     22  C   UNK A   0     -29.550 -14.270  15.846  0.00  0.00    +0.000 A 
ATOM     23  C   UNK A   0     -30.424 -15.062  16.595  0.00  0.00    +0.000 A 
ATOM     24  C   UNK A   0     -31.650 -14.543  17.016  0.00  0.00    +0.000 A 
ATOM     25  C   UNK A   0     -32.006 -13.231  16.692  0.00  0.00    +0.005 A 
ENDBRANCH  19  20
BRANCH  19  26
ATOM     26  C   UNK A   0     -32.710 -10.984  14.649  0.00  0.00    -0.031 A 
ATOM     27  C   UNK A   0     -33.742 -10.039  14.826  0.00  0.00    +0.005 A 
ATOM     28  C   UNK A   0     -34.858 -10.043  13.983  0.00  0.00    +0.000 A 
ATOM     29  C   UNK A   0     -34.958 -10.985  12.956  0.00  0.00    +0.000 A 
ATOM     30  C   UNK A   0     -33.941 -11.924  12.769  0.00  0.00    +0.000 A 
ATOM     31  C   UNK A   0     -32.822 -11.924  13.607  0.00  0.00    +0.005 A 
ENDBRANCH  19  26
ENDBRANCH   2  19
TORSDOF 9
ENDMDL
MODEL 7
REMARK VINA RESULT:    -4.619      1.872      5.945
REMARK INTER + INTRA:          -9.657
REMARK INTER:                  -6.493
REMARK INTRA:                  -3.164
REMARK UNBOUND:                -2.878
REMARK  Name = 
REMARK  9 active torsions:
REMARK  status: ('A' for Active; 'I' for Inactive)
REMARK    1  A    between atoms: C_2  and  OXT_3
REMARK    2  A    between atoms: C_2  and  CA_4
REMARK    3  A    between atoms: CA_4  and  CB_5
REMARK    4  A    between atoms: CA_4  and  N_13
REMARK    5  A    between atoms: CB_5  and  CG_6
REMARK    6  A    between atoms: CZ_9  and  OH_10
REMARK    7  A    between atoms: C_14  and  C_16
REMARK    8  A    between atoms: C_16  and  C_17
REMARK    9  A    between atoms: C_16  and  C_23
REMARK                            x       y       z     vdW  Elec       q    Type
REMARK                         _______ _______ _______ _____ _____    ______ ____
ROOT
ATOM      1  N   TYR A   1     -30.164 -13.126  17.224  0.00  0.00    -0.301 N 
ATOM      2  C   UNK A   0     -30.553 -13.859  18.396  0.00  0.00    +0.225 C 
ATOM      3  O   UNK A   0     -31.103 -14.990  18.278  0.00  0.00    -0.275 OA
ATOM      4  H   TYR A   1     -29.736 -12.181  17.357  0.00  0.00    +0.150 HD
ENDROOT
BRANCH   1   5
ATOM      5  CA  TYR A   1     -30.536 -13.555  15.874  0.00  0.00    +0.186 C 
BRANCH   5   7
ATOM      6  O   TYR A   1     -29.439 -14.625  14.022  0.00  0.00    -0.249 OA
ATOM      7  C   TYR A   1     -29.396 -14.310  15.242  0.00  0.00    +0.326 C 
BRANCH   7   8
ATOM      8  OXT TYR A   1     -28.298 -14.677  16.014  0.00  0.00    -0.479 OA
ATOM      9  HXT TYR A   1     -28.273 -14.481  17.007  0.00  0.00    +0.295 HD
ENDBRANCH   7   8
ENDBRANCH   5   7
BRANCH   5  10
ATOM     10  CB  TYR A   1     -30.933 -12.329  15.031  0.00  0.00    +0.069 C 
BRANCH  10  11
ATOM     11  CG  TYR A   1     -32.021 -11.525  15.696  0.00  0.00    -0.045 A 
ATOM     12  CD1 TYR A   1     -33.195 -12.152  16.146  0.00  0.00    +0.007 A 
ATOM     13  CE1 TYR A   1     -34.188 -11.408  16.792  0.00  0.00    +0.045 A 
ATOM     14  CZ  TYR A   1     -34.015 -10.035  16.999  0.00  0.00    +0.117 A 
ATOM     15  CE2 TYR A   1     -32.842  -9.407  16.559  0.00  0.00    +0.045 A 
ATOM     16  CD2 TYR A   1     -31.848 -10.148  15.912  0.00  0.00    +0.007 A 
BRANCH  14  17
ATOM     17  OH  TYR A   1     -35.011  -9.307  17.645  0.00  0.00    -0.507 OA
ATOM     18  HH  TYR A   1     -35.951  -9.244  17.269  0.00  0.00    +0.292 HD
ENDBRANCH  14  17
ENDBRANCH  10  11
ENDBRANCH   5  10
ENDBRANCH   1   5
BRANCH   2  19
ATOM     19  C   UNK A   0     -30.327 -13.250  19.762  0.00  0.00    +0.135 C 
BRANCH  19  20
ATOM     20  C   UNK A   0     -28.904 -13.450  20.254  0.00  0.00    -0.031 A 
ATOM     21  C   UNK A   0     -28.686 -13.883  21.574  0.00  0.00    +0.005 A 
ATOM     22  C   UNK A   0     -27.385 -14.048  22.062  0.00  0.00    +0.000 A 
ATOM     23  C   UNK A   0     -26.288 -13.770  21.242  0.00  0.00    +0.000 A 
ATOM     24  C   UNK A   0     -26.490 -13.323  19.934  0.00  0.00    +0.000 A 
ATOM     25  C   UNK A   0     -27.787 -13.155  19.442  0.00  0.00    +0.005 A 
ENDBRANCH  19  20
BRANCH  19  26
ATOM     26  C   UNK A   0     -30.719 -11.783  19.825  0.00  0.00    -0.031 A 
ATOM     27  C   UNK A   0     -29.846 -10.775  19.365  0.00  0.00    +0.005 A 
ATOM     28  C   UNK A   0     -30.222  -9.430  19.429  0.00  0.00    +0.000 A 
ATOM     29  C   UNK A   0     -31.468  -9.074  19.950  0.00  0.00    +0.000 A 
ATOM     30  C   UNK A   0     -32.342 -10.063  20.405  0.00  0.00    +0.000 A 
ATOM     31  C   UNK A   0     -31.974 -11.410  20.343  0.00  0.00    +0.005 A 
ENDBRANCH  19  26
ENDBRANCH   2  19
TORSDOF 9
ENDMDL
MODEL 8
REMARK VINA RESULT:    -4.537      2.415      5.409
REMARK INTER + INTRA:          -9.537
REMARK INTER:                  -6.802
REMARK INTRA:                  -2.735
REMARK UNBOUND:                -2.878
REMARK  Name = 
REMARK  9 active torsions:
REMARK  status: ('A' for Active; 'I' for Inactive)
REMARK    1  A    between atoms: C_2  and  OXT_3
REMARK    2  A    between atoms: C_2  and  CA_4
REMARK    3  A    between atoms: CA_4  and  CB_5
REMARK    4  A    between atoms: CA_4  and  N_13
REMARK    5  A    between atoms: CB_5  and  CG_6
REMARK    6  A    between atoms: CZ_9  and  OH_10
REMARK    7  A    between atoms: C_14  and  C_16
REMARK    8  A    between atoms: C_16  and  C_17
REMARK    9  A    between atoms: C_16  and  C_23
REMARK                            x       y       z     vdW  Elec       q    Type
REMARK                         _______ _______ _______ _____ _____    ______ ____
ROOT
ATOM      1  N   TYR A   1     -32.679 -10.885  17.490  0.00  0.00    -0.301 N 
ATOM      2  C   UNK A   0     -32.761 -12.121  16.763  0.00  0.00    +0.225 C 
ATOM      3  O   UNK A   0     -33.834 -12.440  16.180  0.00  0.00    -0.275 OA
ATOM      4  H   TYR A   1     -31.784 -10.665  17.984  0.00  0.00    +0.150 HD
ENDROOT
BRANCH   1   5
ATOM      5  CA  TYR A   1     -33.854 -10.046  17.738  0.00  0.00    +0.186 C 
BRANCH   5   7
ATOM      6  O   TYR A   1     -33.554  -8.777  15.718  0.00  0.00    -0.249 OA
ATOM      7  C   TYR A   1     -33.737  -8.758  16.965  0.00  0.00    +0.326 C 
BRANCH   7   8
ATOM      8  OXT TYR A   1     -33.815  -7.541  17.635  0.00  0.00    -0.479 OA
ATOM      9  HXT TYR A   1     -33.707  -7.495  18.641  0.00  0.00    +0.295 HD
ENDBRANCH   7   8
ENDBRANCH   5   7
BRANCH   5  10
ATOM     10  CB  TYR A   1     -33.994  -9.783  19.249  0.00  0.00    +0.069 C 
BRANCH  10  11
ATOM     11  CG  TYR A   1     -32.681  -9.956  19.968  0.00  0.00    -0.045 A 
ATOM     12  CD1 TYR A   1     -31.761  -8.896  20.037  0.00  0.00    +0.007 A 
ATOM     13  CE1 TYR A   1     -30.558  -9.051  20.733  0.00  0.00    +0.045 A 
ATOM     14  CZ  TYR A   1     -30.266 -10.261  21.371  0.00  0.00    +0.117 A 
ATOM     15  CE2 TYR A   1     -31.184 -11.319  21.312  0.00  0.00    +0.045 A 
ATOM     16  CD2 TYR A   1     -32.386 -11.167  20.616  0.00  0.00    +0.007 A 
BRANCH  14  17
ATOM     17  OH  TYR A   1     -29.064 -10.401  22.062  0.00  0.00    -0.507 OA
ATOM     18  HH  TYR A   1     -28.184 -10.527  21.575  0.00  0.00    +0.292 HD
ENDBRANCH  14  17
ENDBRANCH  10  11
ENDBRANCH   5  10
ENDBRANCH   1   5
BRANCH   2  19
ATOM     19  C   UNK A   0     -31.562 -13.044  16.731  0.00  0.00    +0.135 C 
BRANCH  19  20
ATOM     20  C   UNK A   0     -31.228 -13.507  15.324  0.00  0.00    -0.031 A 
ATOM     21  C   UNK A   0     -30.367 -14.606  15.146  0.00  0.00    +0.005 A 
ATOM     22  C   UNK A   0     -30.021 -15.036  13.861  0.00  0.00    +0.000 A 
ATOM     23  C   UNK A   0     -30.519 -14.368  12.740  0.00  0.00    +0.000 A 
ATOM     24  C   UNK A   0     -31.362 -13.266  12.901  0.00  0.00    +0.000 A 
ATOM     25  C   UNK A   0     -31.711 -12.830  14.182  0.00  0.00    +0.005 A 
ENDBRANCH  19  20
BRANCH  19  26
ATOM     26  C   UNK A   0     -30.339 -12.444  17.405  0.00  0.00    -0.031 A 
ATOM     27  C   UNK A   0     -29.942 -11.116  17.148  0.00  0.00    +0.005 A 
ATOM     28  C   UNK A   0     -28.815 -10.578  17.777  0.00  0.00    +0.000 A 
ATOM     29  C   UNK A   0     -28.072 -11.356  18.668  0.00  0.00    +0.000 A 
ATOM     30  C   UNK A   0     -28.456 -12.672  18.934  0.00  0.00    +0.000 A 
ATOM     31  C   UNK A   0     -29.583 -13.215  18.309  0.00  0.00    +0.005 A 
ENDBRANCH  19  26
ENDBRANCH   2  19
TORSDOF 9
ENDMDL
