MODEL 1
REMARK VINA RESULT:     5.013      0.000      0.000
REMARK INTER + INTRA:           5.866
REMARK INTER:                   6.479
REMARK INTRA:                  -0.613
REMARK UNBOUND:                -0.613
REMARK  Name = 
REMARK  7 active torsions:
REMARK  status: ('A' for Active; 'I' for Inactive)
REMARK    1  A    between atoms: C_1  and  C_2
REMARK    2  A    between atoms: C_6  and  C_8
REMARK    3  A    between atoms: C_14  and  C_16
REMARK    4  A    between atoms: C_19  and  S_22
REMARK    5  A    between atoms: S_22  and  N_25
REMARK    6  A    between atoms: N_25  and  C_26
REMARK    7  A    between atoms: N_25  and  C_27
REMARK                            x       y       z     vdW  Elec       q    Type
REMARK                         _______ _______ _______ _____ _____    ______ ____
ROOT
ATOM      1  C   UNL     1     -31.966  -9.230  16.848  0.00  0.00    +0.037 A 
ATOM      2  C   UNL     1     -30.986  -8.865  17.787  0.00  0.00    +0.015 A 
ATOM      3  C   UNL     1     -31.279  -7.940  18.793  0.00  0.00    +0.029 A 
ATOM      4  C   UNL     1     -32.553  -7.363  18.870  0.00  0.00    +0.109 A 
ATOM      5  C   UNL     1     -33.526  -7.705  17.922  0.00  0.00    +0.029 A 
ATOM      6  C   UNL     1     -33.234  -8.629  16.916  0.00  0.00    +0.015 A 
ENDROOT
BRANCH   1  14
ATOM      7  C   UNL     1     -32.364 -14.236  17.313  0.00  0.00    +0.039 C 
ATOM      8  C   UNL     1     -30.967 -13.653  17.098  0.00  0.00    +0.133 C 
ATOM      9  C   UNL     1     -30.983 -12.108  17.298  0.00  0.00    +0.139 C 
ATOM     10  N   UNL     1     -30.897 -11.396  16.014  0.00  0.00    -0.292 N 
ATOM     11  C   UNL     1     -30.001 -11.897  14.966  0.00  0.00    +0.144 C 
ATOM     12  C   UNL     1     -29.440 -13.269  15.362  0.00  0.00    +0.166 C 
ATOM     13  O   UNL     1     -30.508 -14.073  15.819  0.00  0.00    -0.366 OA
ATOM     14  C   UNL     1     -31.662 -10.199  15.770  0.00  0.00    +0.247 C 
ATOM     15  O   UNL     1     -32.089  -9.966  14.605  0.00  0.00    -0.270 OA
BRANCH  12  16
ATOM     16  C   UNL     1     -28.769 -13.921  14.175  0.00  0.00    -0.017 A 
ATOM     17  C   UNL     1     -29.514 -14.304  13.044  0.00  0.00    +0.006 A 
ATOM     18  C   UNL     1     -28.878 -14.876  11.940  0.00  0.00    +0.000 A 
ATOM     19  C   UNL     1     -27.493 -15.061  11.946  0.00  0.00    +0.000 A 
ATOM     20  C   UNL     1     -26.742 -14.668  13.056  0.00  0.00    +0.000 A 
ATOM     21  C   UNL     1     -27.374 -14.097  14.165  0.00  0.00    +0.006 A 
ENDBRANCH  12  16
ENDBRANCH   1  14
BRANCH   4  22
ATOM     22  S   UNL     1     -32.937  -6.196  20.131  0.00  0.00    +0.074 S 
ATOM     23  O   UNL     1     -33.650  -5.036  19.495  0.00  0.00    -0.150 OA
ATOM     24  O   UNL     1     -31.680  -5.704  20.793  0.00  0.00    -0.150 OA
BRANCH  22  25
ATOM     25  N   UNL     1     -33.951  -6.944  21.333  0.00  0.00    -0.206 N 
ATOM     26  C   UNL     1     -34.926  -6.124  22.050  0.00  0.00    +0.157 C 
BRANCH  25  27
ATOM     27  C   UNL     1     -33.868  -8.357  21.586  0.00  0.00    +0.051 A 
ATOM     28  C   UNL     1     -32.617  -8.980  21.752  0.00  0.00    +0.025 A 
ATOM     29  C   UNL     1     -32.538 -10.356  21.990  0.00  0.00    +0.002 A 
ATOM     30  C   UNL     1     -33.703 -11.123  22.060  0.00  0.00    +0.000 A 
ATOM     31  C   UNL     1     -34.950 -10.516  21.892  0.00  0.00    +0.002 A 
ATOM     32  C   UNL     1     -35.034  -9.141  21.654  0.00  0.00    +0.025 A 
ENDBRANCH  25  27
ENDBRANCH  22  25
ENDBRANCH   4  22
TORSDOF 5
ENDMDL
