MODEL 1
REMARK VINA RESULT:    -4.505      0.000      0.000
REMARK INTER + INTRA:          -8.721
REMARK INTER:                  -6.611
REMARK INTRA:                  -2.110
REMARK UNBOUND:                -2.110
REMARK  Name = 
REMARK  11 active torsions:
REMARK  status: ('A' for Active; 'I' for Inactive)
REMARK    1  A    between atoms: C_1  and  C_2
REMARK    2  A    between atoms: C_5  and  N_8
REMARK    3  A    between atoms: N_8  and  S_9
REMARK    4  A    between atoms: S_9  and  C_12
REMARK    5  A    between atoms: C_16  and  C_18
REMARK    6  A    between atoms: N_20  and  C_21
REMARK    7  A    between atoms: C_21  and  C_22
REMARK    8  A    between atoms: C_22  and  C_23
REMARK    9  A    between atoms: C_22  and  N_29
REMARK   10  A    between atoms: N_29  and  C_30
REMARK   11  A    between atoms: N_29  and  C_31
REMARK                            x       y       z     vdW  Elec       q    Type
REMARK                         _______ _______ _______ _____ _____    ______ ____
ROOT
ATOM      1  C   UNL     1     -31.751 -13.460  13.348  0.00  0.00    +0.109 A 
ATOM      2  C   UNL     1     -30.952 -14.115  12.401  0.00  0.00    +0.029 A 
ATOM      3  C   UNL     1     -29.724 -14.660  12.779  0.00  0.00    +0.003 A 
ATOM      4  C   UNL     1     -29.281 -14.544  14.100  0.00  0.00    +0.013 A 
ATOM      5  C   UNL     1     -30.062 -13.874  15.059  0.00  0.00    +0.039 A 
ATOM      6  C   UNL     1     -31.309 -13.349  14.675  0.00  0.00    +0.041 A 
ENDROOT
BRANCH   5   7
ATOM      7  C   UNL     1     -29.576 -13.740  16.453  0.00  0.00    +0.244 C 
ATOM      8  O   UNL     1     -28.349 -13.897  16.700  0.00  0.00    -0.270 OA
ATOM      9  N   UNL     1     -30.482 -13.402  17.516  0.00  0.00    -0.310 N 
ATOM     10  H   UNL     1     -31.395 -12.960  17.274  0.00  0.00    +0.149 HD
BRANCH   9  11
ATOM     11  C   UNL     1     -30.120 -13.468  18.935  0.00  0.00    +0.128 C 
BRANCH  11  12
ATOM     12  C   UNL     1     -29.424 -12.164  19.413  0.00  0.00    +0.103 C 
BRANCH  12  13
ATOM     13  C   UNL     1     -30.470 -11.262  20.058  0.00  0.00    -0.029 A 
ATOM     14  C   UNL     1     -30.245  -9.874  20.133  0.00  0.00    +0.005 A 
ATOM     15  C   UNL     1     -31.202  -9.033  20.701  0.00  0.00    +0.000 A 
ATOM     16  C   UNL     1     -32.396  -9.565  21.196  0.00  0.00    +0.000 A 
ATOM     17  C   UNL     1     -32.637 -10.938  21.113  0.00  0.00    +0.000 A 
ATOM     18  C   UNL     1     -31.688 -11.781  20.537  0.00  0.00    +0.005 A 
ENDBRANCH  12  13
BRANCH  12  19
ATOM     19  N   UNL     1     -28.271 -12.412  20.333  0.00  0.00    -0.300 NA
ATOM     20  C   UNL     1     -28.475 -13.622  21.154  0.00  0.00    +0.105 C 
ATOM     21  C   UNL     1     -27.019 -12.591  19.567  0.00  0.00    +0.105 C 
ENDBRANCH  12  19
ENDBRANCH  11  12
ENDBRANCH   9  11
ENDBRANCH   5   7
BRANCH   1  22
ATOM     22  S   UNL     1     -33.309 -12.776  12.898  0.00  0.00    +0.072 S 
ATOM     23  O   UNL     1     -33.080 -11.448  12.236  0.00  0.00    -0.150 OA
ATOM     24  O   UNL     1     -34.039 -13.673  11.938  0.00  0.00    -0.150 OA
BRANCH  22  25
ATOM     25  N   UNL     1     -34.274 -12.548  14.322  0.00  0.00    -0.216 N 
ATOM     26  H   UNL     1     -34.974 -13.289  14.544  0.00  0.00    +0.174 HD
BRANCH  25  31
ATOM     27  C   UNL     1     -33.821  -8.087  17.930  0.00  0.00    +0.044 C 
ATOM     28  C   UNL     1     -33.920  -9.240  16.975  0.00  0.00    -0.050 A 
ATOM     29  C   UNL     1     -33.861 -10.555  17.452  0.00  0.00    +0.005 A 
ATOM     30  C   UNL     1     -33.978 -11.632  16.572  0.00  0.00    +0.025 A 
ATOM     31  C   UNL     1     -34.167 -11.414  15.198  0.00  0.00    +0.048 A 
ATOM     32  C   UNL     1     -34.256 -10.092  14.724  0.00  0.00    +0.025 A 
ATOM     33  C   UNL     1     -34.136  -9.015  15.604  0.00  0.00    +0.005 A 
ENDBRANCH  25  31
ENDBRANCH  22  25
ENDBRANCH   1  22
TORSDOF 8
ENDMDL
MODEL 2
REMARK VINA RESULT:    -4.000      3.104      6.119
REMARK INTER + INTRA:          -7.980
REMARK INTER:                  -6.865
REMARK INTRA:                  -1.115
REMARK UNBOUND:                -2.110
REMARK  Name = 
REMARK  11 active torsions:
REMARK  status: ('A' for Active; 'I' for Inactive)
REMARK    1  A    between atoms: C_1  and  C_2
REMARK    2  A    between atoms: C_5  and  N_8
REMARK    3  A    between atoms: N_8  and  S_9
REMARK    4  A    between atoms: S_9  and  C_12
REMARK    5  A    between atoms: C_16  and  C_18
REMARK    6  A    between atoms: N_20  and  C_21
REMARK    7  A    between atoms: C_21  and  C_22
REMARK    8  A    between atoms: C_22  and  C_23
REMARK    9  A    between atoms: C_22  and  N_29
REMARK   10  A    between atoms: N_29  and  C_30
REMARK   11  A    between atoms: N_29  and  C_31
REMARK                            x       y       z     vdW  Elec       q    Type
REMARK                         _______ _______ _______ _____ _____    ______ ____
ROOT
ATOM      1  C   UNL     1     -32.894  -7.835  19.117  0.00  0.00    +0.109 A 
ATOM      2  C   UNL     1     -32.490  -6.596  19.636  0.00  0.00    +0.029 A 
ATOM      3  C   UNL     1     -31.456  -6.534  20.571  0.00  0.00    +0.003 A 
ATOM      4  C   UNL     1     -30.827  -7.705  21.003  0.00  0.00    +0.013 A 
ATOM      5  C   UNL     1     -31.232  -8.958  20.507  0.00  0.00    +0.039 A 
ATOM      6  C   UNL     1     -32.259  -9.010  19.547  0.00  0.00    +0.041 A 
ENDROOT
BRANCH   5   7
ATOM      7  C   UNL     1     -30.573 -10.196  20.984  0.00  0.00    +0.244 C 
ATOM      8  O   UNL     1     -29.761 -10.135  21.948  0.00  0.00    -0.270 OA
ATOM      9  N   UNL     1     -30.874 -11.466  20.383  0.00  0.00    -0.310 N 
ATOM     10  H   UNL     1     -31.757 -11.564  19.836  0.00  0.00    +0.149 HD
BRANCH   9  11
ATOM     11  C   UNL     1     -30.107 -12.687  20.650  0.00  0.00    +0.128 C 
BRANCH  11  12
ATOM     12  C   UNL     1     -28.998 -12.914  19.586  0.00  0.00    +0.103 C 
BRANCH  12  13
ATOM     13  C   UNL     1     -27.765 -13.480  20.282  0.00  0.00    -0.029 A 
ATOM     14  C   UNL     1     -26.482 -13.150  19.807  0.00  0.00    +0.005 A 
ATOM     15  C   UNL     1     -25.344 -13.643  20.446  0.00  0.00    +0.000 A 
ATOM     16  C   UNL     1     -25.473 -14.465  21.569  0.00  0.00    +0.000 A 
ATOM     17  C   UNL     1     -26.739 -14.785  22.060  0.00  0.00    +0.000 A 
ATOM     18  C   UNL     1     -27.880 -14.287  21.430  0.00  0.00    +0.005 A 
ENDBRANCH  12  13
BRANCH  12  19
ATOM     19  N   UNL     1     -29.435 -13.784  18.452  0.00  0.00    -0.300 NA
ATOM     20  C   UNL     1     -30.907 -13.876  18.366  0.00  0.00    +0.105 C 
ATOM     21  C   UNL     1     -28.939 -13.255  17.164  0.00  0.00    +0.105 C 
ENDBRANCH  12  19
ENDBRANCH  11  12
ENDBRANCH   9  11
ENDBRANCH   5   7
BRANCH   1  22
ATOM     22  S   UNL     1     -34.186  -7.938  17.928  0.00  0.00    +0.072 S 
ATOM     23  O   UNL     1     -35.027  -9.144  18.231  0.00  0.00    -0.150 OA
ATOM     24  O   UNL     1     -35.062  -6.717  17.970  0.00  0.00    -0.150 OA
BRANCH  22  25
ATOM     25  N   UNL     1     -33.501  -8.102  16.342  0.00  0.00    -0.216 N 
ATOM     26  H   UNL     1     -33.373  -7.227  15.788  0.00  0.00    +0.174 HD
BRANCH  25  31
ATOM     27  C   UNL     1     -31.808 -13.103  14.051  0.00  0.00    +0.044 C 
ATOM     28  C   UNL     1     -32.268 -11.811  14.661  0.00  0.00    -0.050 A 
ATOM     29  C   UNL     1     -31.365 -11.002  15.361  0.00  0.00    +0.005 A 
ATOM     30  C   UNL     1     -31.781  -9.787  15.908  0.00  0.00    +0.025 A 
ATOM     31  C   UNL     1     -33.108  -9.353  15.757  0.00  0.00    +0.048 A 
ATOM     32  C   UNL     1     -34.007 -10.154  15.028  0.00  0.00    +0.025 A 
ATOM     33  C   UNL     1     -33.591 -11.370  14.483  0.00  0.00    +0.005 A 
ENDBRANCH  25  31
ENDBRANCH  22  25
ENDBRANCH   1  22
TORSDOF 8
ENDMDL
MODEL 3
REMARK VINA RESULT:    -3.885      3.301      7.561
REMARK INTER + INTRA:          -7.812
REMARK INTER:                  -5.865
REMARK INTRA:                  -1.947
REMARK UNBOUND:                -2.110
REMARK  Name = 
REMARK  11 active torsions:
REMARK  status: ('A' for Active; 'I' for Inactive)
REMARK    1  A    between atoms: C_1  and  C_2
REMARK    2  A    between atoms: C_5  and  N_8
REMARK    3  A    between atoms: N_8  and  S_9
REMARK    4  A    between atoms: S_9  and  C_12
REMARK    5  A    between atoms: C_16  and  C_18
REMARK    6  A    between atoms: N_20  and  C_21
REMARK    7  A    between atoms: C_21  and  C_22
REMARK    8  A    between atoms: C_22  and  C_23
REMARK    9  A    between atoms: C_22  and  N_29
REMARK   10  A    between atoms: N_29  and  C_30
REMARK   11  A    between atoms: N_29  and  C_31
REMARK                            x       y       z     vdW  Elec       q    Type
REMARK                         _______ _______ _______ _____ _____    ______ ____
ROOT
ATOM      1  C   UNL     1     -33.458  -7.547  18.923  0.00  0.00    +0.109 A 
ATOM      2  C   UNL     1     -34.248  -6.393  18.828  0.00  0.00    +0.029 A 
ATOM      3  C   UNL     1     -35.051  -6.187  17.705  0.00  0.00    +0.003 A 
ATOM      4  C   UNL     1     -35.062  -7.123  16.667  0.00  0.00    +0.013 A 
ATOM      5  C   UNL     1     -34.261  -8.278  16.739  0.00  0.00    +0.039 A 
ATOM      6  C   UNL     1     -33.473  -8.489  17.884  0.00  0.00    +0.041 A 
ENDROOT
BRANCH   5   7
ATOM      7  C   UNL     1     -34.265  -9.256  15.625  0.00  0.00    +0.244 C 
ATOM      8  O   UNL     1     -34.647  -8.890  14.479  0.00  0.00    -0.270 OA
ATOM      9  N   UNL     1     -33.808 -10.603  15.830  0.00  0.00    -0.310 N 
ATOM     10  H   UNL     1     -33.202 -10.805  16.655  0.00  0.00    +0.149 HD
BRANCH   9  11
ATOM     11  C   UNL     1     -33.987 -11.674  14.846  0.00  0.00    +0.128 C 
BRANCH  11  12
ATOM     12  C   UNL     1     -32.632 -12.127  14.235  0.00  0.00    +0.103 C 
BRANCH  12  13
ATOM     13  C   UNL     1     -31.813 -12.813  15.323  0.00  0.00    -0.029 A 
ATOM     14  C   UNL     1     -32.345 -12.941  16.620  0.00  0.00    +0.005 A 
ATOM     15  C   UNL     1     -31.617 -13.585  17.622  0.00  0.00    +0.000 A 
ATOM     16  C   UNL     1     -30.355 -14.114  17.338  0.00  0.00    +0.000 A 
ATOM     17  C   UNL     1     -29.824 -14.008  16.051  0.00  0.00    +0.000 A 
ATOM     18  C   UNL     1     -30.552 -13.373  15.045  0.00  0.00    +0.005 A 
ENDBRANCH  12  13
BRANCH  12  19
ATOM     19  N   UNL     1     -32.789 -13.002  13.033  0.00  0.00    -0.300 NA
ATOM     20  C   UNL     1     -34.174 -12.990  12.522  0.00  0.00    +0.105 C 
ATOM     21  C   UNL     1     -31.899 -12.554  11.939  0.00  0.00    +0.105 C 
ENDBRANCH  12  19
ENDBRANCH  11  12
ENDBRANCH   9  11
ENDBRANCH   5   7
BRANCH   1  22
ATOM     22  S   UNL     1     -32.447  -7.836  20.334  0.00  0.00    +0.072 S 
ATOM     23  O   UNL     1     -31.183  -7.038  20.194  0.00  0.00    -0.150 OA
ATOM     24  O   UNL     1     -33.144  -7.414  21.597  0.00  0.00    -0.150 OA
BRANCH  22  25
ATOM     25  N   UNL     1     -32.053  -9.523  20.429  0.00  0.00    -0.216 N 
ATOM     26  H   UNL     1     -32.747 -10.147  20.895  0.00  0.00    +0.174 HD
BRANCH  25  31
ATOM     27  C   UNL     1     -27.195 -11.905  18.465  0.00  0.00    +0.044 C 
ATOM     28  C   UNL     1     -28.474 -11.294  18.957  0.00  0.00    -0.050 A 
ATOM     29  C   UNL     1     -28.904 -11.523  20.270  0.00  0.00    +0.005 A 
ATOM     30  C   UNL     1     -30.080 -10.936  20.741  0.00  0.00    +0.025 A 
ATOM     31  C   UNL     1     -30.844 -10.101  19.911  0.00  0.00    +0.048 A 
ATOM     32  C   UNL     1     -30.395  -9.848  18.601  0.00  0.00    +0.025 A 
ATOM     33  C   UNL     1     -29.220 -10.436  18.129  0.00  0.00    +0.005 A 
ENDBRANCH  25  31
ENDBRANCH  22  25
ENDBRANCH   1  22
TORSDOF 8
ENDMDL
MODEL 4
REMARK VINA RESULT:    -3.723      1.277      1.920
REMARK INTER + INTRA:          -7.574
REMARK INTER:                  -6.975
REMARK INTRA:                  -0.599
REMARK UNBOUND:                -2.110
REMARK  Name = 
REMARK  11 active torsions:
REMARK  status: ('A' for Active; 'I' for Inactive)
REMARK    1  A    between atoms: C_1  and  C_2
REMARK    2  A    between atoms: C_5  and  N_8
REMARK    3  A    between atoms: N_8  and  S_9
REMARK    4  A    between atoms: S_9  and  C_12
REMARK    5  A    between atoms: C_16  and  C_18
REMARK    6  A    between atoms: N_20  and  C_21
REMARK    7  A    between atoms: C_21  and  C_22
REMARK    8  A    between atoms: C_22  and  C_23
REMARK    9  A    between atoms: C_22  and  N_29
REMARK   10  A    between atoms: N_29  and  C_30
REMARK   11  A    between atoms: N_29  and  C_31
REMARK                            x       y       z     vdW  Elec       q    Type
REMARK                         _______ _______ _______ _____ _____    ______ ____
ROOT
ATOM      1  C   UNL     1     -31.635 -13.625  13.674  0.00  0.00    +0.109 A 
ATOM      2  C   UNL     1     -30.570 -14.177  12.947  0.00  0.00    +0.029 A 
ATOM      3  C   UNL     1     -29.497 -14.764  13.617  0.00  0.00    +0.003 A 
ATOM      4  C   UNL     1     -29.471 -14.794  15.014  0.00  0.00    +0.013 A 
ATOM      5  C   UNL     1     -30.523 -14.229  15.760  0.00  0.00    +0.039 A 
ATOM      6  C   UNL     1     -31.612 -13.660  15.076  0.00  0.00    +0.041 A 
ENDROOT
BRANCH   5   7
ATOM      7  C   UNL     1     -30.479 -14.249  17.241  0.00  0.00    +0.244 C 
ATOM      8  O   UNL     1     -31.442 -14.751  17.884  0.00  0.00    -0.270 OA
ATOM      9  N   UNL     1     -29.340 -13.731  17.949  0.00  0.00    -0.310 N 
ATOM     10  H   UNL     1     -28.437 -13.628  17.436  0.00  0.00    +0.149 HD
BRANCH   9  11
ATOM     11  C   UNL     1     -29.320 -13.517  19.398  0.00  0.00    +0.128 C 
BRANCH  11  12
ATOM     12  C   UNL     1     -29.194 -12.010  19.755  0.00  0.00    +0.103 C 
BRANCH  12  13
ATOM     13  C   UNL     1     -30.585 -11.387  19.735  0.00  0.00    -0.029 A 
ATOM     14  C   UNL     1     -31.622 -11.969  20.488  0.00  0.00    +0.005 A 
ATOM     15  C   UNL     1     -32.896 -11.399  20.497  0.00  0.00    +0.000 A 
ATOM     16  C   UNL     1     -33.147 -10.238  19.760  0.00  0.00    +0.000 A 
ATOM     17  C   UNL     1     -32.123  -9.642  19.023  0.00  0.00    +0.000 A 
ATOM     18  C   UNL     1     -30.846 -10.203  19.018  0.00  0.00    +0.005 A 
ENDBRANCH  12  13
BRANCH  12  19
ATOM     19  N   UNL     1     -28.505 -11.767  21.060  0.00  0.00    -0.300 NA
ATOM     20  C   UNL     1     -29.376 -11.056  22.018  0.00  0.00    +0.105 C 
ATOM     21  C   UNL     1     -28.097 -13.045  21.682  0.00  0.00    +0.105 C 
ENDBRANCH  12  19
ENDBRANCH  11  12
ENDBRANCH   9  11
ENDBRANCH   5   7
BRANCH   1  22
ATOM     22  S   UNL     1     -33.006 -12.891  12.852  0.00  0.00    +0.072 S 
ATOM     23  O   UNL     1     -32.514 -11.733  12.032  0.00  0.00    -0.150 OA
ATOM     24  O   UNL     1     -33.681 -13.875  11.938  0.00  0.00    -0.150 OA
BRANCH  22  25
ATOM     25  N   UNL     1     -34.146 -12.317  14.027  0.00  0.00    -0.216 N 
ATOM     26  H   UNL     1     -34.742 -13.033  14.499  0.00  0.00    +0.174 HD
BRANCH  25  31
ATOM     27  C   UNL     1     -34.888  -6.761  15.331  0.00  0.00    +0.044 C 
ATOM     28  C   UNL     1     -34.708  -8.216  15.012  0.00  0.00    -0.050 A 
ATOM     29  C   UNL     1     -35.062  -8.709  13.750  0.00  0.00    +0.005 A 
ATOM     30  C   UNL     1     -34.873 -10.056  13.438  0.00  0.00    +0.025 A 
ATOM     31  C   UNL     1     -34.317 -10.935  14.381  0.00  0.00    +0.048 A 
ATOM     32  C   UNL     1     -33.933 -10.433  15.639  0.00  0.00    +0.025 A 
ATOM     33  C   UNL     1     -34.125  -9.086  15.950  0.00  0.00    +0.005 A 
ENDBRANCH  25  31
ENDBRANCH  22  25
ENDBRANCH   1  22
TORSDOF 8
ENDMDL
MODEL 5
REMARK VINA RESULT:    -3.701      3.589      6.502
REMARK INTER + INTRA:          -7.541
REMARK INTER:                  -6.157
REMARK INTRA:                  -1.384
REMARK UNBOUND:                -2.110
REMARK  Name = 
REMARK  11 active torsions:
REMARK  status: ('A' for Active; 'I' for Inactive)
REMARK    1  A    between atoms: C_1  and  C_2
REMARK    2  A    between atoms: C_5  and  N_8
REMARK    3  A    between atoms: N_8  and  S_9
REMARK    4  A    between atoms: S_9  and  C_12
REMARK    5  A    between atoms: C_16  and  C_18
REMARK    6  A    between atoms: N_20  and  C_21
REMARK    7  A    between atoms: C_21  and  C_22
REMARK    8  A    between atoms: C_22  and  C_23
REMARK    9  A    between atoms: C_22  and  N_29
REMARK   10  A    between atoms: N_29  and  C_30
REMARK   11  A    between atoms: N_29  and  C_31
REMARK                            x       y       z     vdW  Elec       q    Type
REMARK                         _______ _______ _______ _____ _____    ______ ____
ROOT
ATOM      1  C   UNL     1     -32.702  -6.670  19.911  0.00  0.00    +0.109 A 
ATOM      2  C   UNL     1     -32.157  -5.818  20.882  0.00  0.00    +0.029 A 
ATOM      3  C   UNL     1     -30.946  -6.141  21.495  0.00  0.00    +0.003 A 
ATOM      4  C   UNL     1     -30.276  -7.319  21.152  0.00  0.00    +0.013 A 
ATOM      5  C   UNL     1     -30.818  -8.194  20.192  0.00  0.00    +0.039 A 
ATOM      6  C   UNL     1     -32.027  -7.849  19.563  0.00  0.00    +0.041 A 
ENDROOT
BRANCH   5   7
ATOM      7  C   UNL     1     -30.110  -9.450  19.847  0.00  0.00    +0.244 C 
ATOM      8  O   UNL     1     -29.884 -10.302  20.750  0.00  0.00    -0.270 OA
ATOM      9  N   UNL     1     -29.710  -9.719  18.494  0.00  0.00    -0.310 N 
ATOM     10  H   UNL     1     -30.173  -9.193  17.721  0.00  0.00    +0.149 HD
BRANCH   9  11
ATOM     11  C   UNL     1     -28.822 -10.824  18.119  0.00  0.00    +0.128 C 
BRANCH  11  12
ATOM     12  C   UNL     1     -29.484 -12.206  18.377  0.00  0.00    +0.103 C 
BRANCH  12  13
ATOM     13  C   UNL     1     -29.934 -12.786  17.041  0.00  0.00    -0.029 A 
ATOM     14  C   UNL     1     -30.981 -12.169  16.329  0.00  0.00    +0.005 A 
ATOM     15  C   UNL     1     -31.391 -12.675  15.095  0.00  0.00    +0.000 A 
ATOM     16  C   UNL     1     -30.757 -13.797  14.554  0.00  0.00    +0.000 A 
ATOM     17  C   UNL     1     -29.707 -14.407  15.242  0.00  0.00    +0.000 A 
ATOM     18  C   UNL     1     -29.288 -13.899  16.471  0.00  0.00    +0.005 A 
ENDBRANCH  12  13
BRANCH  12  19
ATOM     19  N   UNL     1     -28.598 -13.157  19.116  0.00  0.00    -0.300 NA
ATOM     20  C   UNL     1     -27.280 -12.560  19.415  0.00  0.00    +0.105 C 
ATOM     21  C   UNL     1     -29.215 -13.557  20.399  0.00  0.00    +0.105 C 
ENDBRANCH  12  19
ENDBRANCH  11  12
ENDBRANCH   9  11
ENDBRANCH   5   7
BRANCH   1  22
ATOM     22  S   UNL     1     -34.221  -6.278  19.115  0.00  0.00    +0.072 S 
ATOM     23  O   UNL     1     -35.062  -5.463  20.055  0.00  0.00    -0.150 OA
ATOM     24  O   UNL     1     -33.989  -5.481  17.862  0.00  0.00    -0.150 OA
BRANCH  22  25
ATOM     25  N   UNL     1     -35.062  -7.743  18.719  0.00  0.00    -0.216 N 
ATOM     26  H   UNL     1     -35.717  -8.124  19.438  0.00  0.00    +0.174 HD
BRANCH  25  31
ATOM     27  C   UNL     1     -34.453 -10.697  13.817  0.00  0.00    +0.044 C 
ATOM     28  C   UNL     1     -34.634  -9.917  15.086  0.00  0.00    -0.050 A 
ATOM     29  C   UNL     1     -34.577 -10.567  16.325  0.00  0.00    +0.005 A 
ATOM     30  C   UNL     1     -34.718  -9.843  17.511  0.00  0.00    +0.025 A 
ATOM     31  C   UNL     1     -34.911  -8.453  17.479  0.00  0.00    +0.048 A 
ATOM     32  C   UNL     1     -34.939  -7.797  16.234  0.00  0.00    +0.025 A 
ATOM     33  C   UNL     1     -34.800  -8.522  15.049  0.00  0.00    +0.005 A 
ENDBRANCH  25  31
ENDBRANCH  22  25
ENDBRANCH   1  22
TORSDOF 8
ENDMDL
MODEL 6
REMARK VINA RESULT:    -3.694      2.343      5.149
REMARK INTER + INTRA:          -7.532
REMARK INTER:                  -6.451
REMARK INTRA:                  -1.080
REMARK UNBOUND:                -2.110
REMARK  Name = 
REMARK  11 active torsions:
REMARK  status: ('A' for Active; 'I' for Inactive)
REMARK    1  A    between atoms: C_1  and  C_2
REMARK    2  A    between atoms: C_5  and  N_8
REMARK    3  A    between atoms: N_8  and  S_9
REMARK    4  A    between atoms: S_9  and  C_12
REMARK    5  A    between atoms: C_16  and  C_18
REMARK    6  A    between atoms: N_20  and  C_21
REMARK    7  A    between atoms: C_21  and  C_22
REMARK    8  A    between atoms: C_22  and  C_23
REMARK    9  A    between atoms: C_22  and  N_29
REMARK   10  A    between atoms: N_29  and  C_30
REMARK   11  A    between atoms: N_29  and  C_31
REMARK                            x       y       z     vdW  Elec       q    Type
REMARK                         _______ _______ _______ _____ _____    ______ ____
ROOT
ATOM      1  C   UNL     1     -32.124 -13.054  13.058  0.00  0.00    +0.109 A 
ATOM      2  C   UNL     1     -33.087 -13.177  12.046  0.00  0.00    +0.029 A 
ATOM      3  C   UNL     1     -34.184 -12.316  12.016  0.00  0.00    +0.003 A 
ATOM      4  C   UNL     1     -34.334 -11.334  12.999  0.00  0.00    +0.013 A 
ATOM      5  C   UNL     1     -33.386 -11.207  14.032  0.00  0.00    +0.039 A 
ATOM      6  C   UNL     1     -32.271 -12.065  14.041  0.00  0.00    +0.041 A 
ENDROOT
BRANCH   5   7
ATOM      7  C   UNL     1     -33.562 -10.175  15.082  0.00  0.00    +0.244 C 
ATOM      8  O   UNL     1     -34.387  -9.239  14.899  0.00  0.00    -0.270 OA
ATOM      9  N   UNL     1     -32.826 -10.250  16.314  0.00  0.00    -0.310 N 
ATOM     10  H   UNL     1     -32.413 -11.165  16.595  0.00  0.00    +0.149 HD
BRANCH   9  11
ATOM     11  C   UNL     1     -32.783  -9.161  17.294  0.00  0.00    +0.128 C 
BRANCH  11  12
ATOM     12  C   UNL     1     -33.667  -9.468  18.535  0.00  0.00    +0.103 C 
BRANCH  12  13
ATOM     13  C   UNL     1     -32.756  -9.740  19.726  0.00  0.00    -0.029 A 
ATOM     14  C   UNL     1     -33.225 -10.520  20.800  0.00  0.00    +0.005 A 
ATOM     15  C   UNL     1     -32.397 -10.797  21.888  0.00  0.00    +0.000 A 
ATOM     16  C   UNL     1     -31.089 -10.304  21.913  0.00  0.00    +0.000 A 
ATOM     17  C   UNL     1     -30.606  -9.544  20.847  0.00  0.00    +0.000 A 
ATOM     18  C   UNL     1     -31.428  -9.273  19.753  0.00  0.00    +0.005 A 
ENDBRANCH  12  13
BRANCH  12  19
ATOM     19  N   UNL     1     -34.656  -8.388  18.837  0.00  0.00    -0.300 NA
ATOM     20  C   UNL     1     -34.176  -7.486  19.904  0.00  0.00    +0.105 C 
ATOM     21  C   UNL     1     -34.918  -7.566  17.635  0.00  0.00    +0.105 C 
ENDBRANCH  12  19
ENDBRANCH  11  12
ENDBRANCH   9  11
ENDBRANCH   5   7
BRANCH   1  22
ATOM     22  S   UNL     1     -30.726 -14.120  13.109  0.00  0.00    +0.072 S 
ATOM     23  O   UNL     1     -30.792 -15.061  11.940  0.00  0.00    -0.150 OA
ATOM     24  O   UNL     1     -29.444 -13.340  13.027  0.00  0.00    -0.150 OA
BRANCH  22  25
ATOM     25  N   UNL     1     -30.751 -15.037  14.582  0.00  0.00    -0.216 N 
ATOM     26  H   UNL     1     -30.998 -16.048  14.508  0.00  0.00    +0.174 HD
BRANCH  25  31
ATOM     27  C   UNL     1     -29.450 -12.823  19.733  0.00  0.00    +0.044 C 
ATOM     28  C   UNL     1     -29.808 -13.384  18.388  0.00  0.00    -0.050 A 
ATOM     29  C   UNL     1     -28.835 -13.486  17.387  0.00  0.00    +0.005 A 
ATOM     30  C   UNL     1     -29.156 -14.031  16.142  0.00  0.00    +0.025 A 
ATOM     31  C   UNL     1     -30.456 -14.492  15.878  0.00  0.00    +0.048 A 
ATOM     32  C   UNL     1     -31.426 -14.415  16.896  0.00  0.00    +0.025 A 
ATOM     33  C   UNL     1     -31.104 -13.868  18.139  0.00  0.00    +0.005 A 
ENDBRANCH  25  31
ENDBRANCH  22  25
ENDBRANCH   1  22
TORSDOF 8
ENDMDL
MODEL 7
REMARK VINA RESULT:    -3.630      2.917      6.034
REMARK INTER + INTRA:          -7.437
REMARK INTER:                  -6.711
REMARK INTRA:                  -0.726
REMARK UNBOUND:                -2.110
REMARK  Name = 
REMARK  11 active torsions:
REMARK  status: ('A' for Active; 'I' for Inactive)
REMARK    1  A    between atoms: C_1  and  C_2
REMARK    2  A    between atoms: C_5  and  N_8
REMARK    3  A    between atoms: N_8  and  S_9
REMARK    4  A    between atoms: S_9  and  C_12
REMARK    5  A    between atoms: C_16  and  C_18
REMARK    6  A    between atoms: N_20  and  C_21
REMARK    7  A    between atoms: C_21  and  C_22
REMARK    8  A    between atoms: C_22  and  C_23
REMARK    9  A    between atoms: C_22  and  N_29
REMARK   10  A    between atoms: N_29  and  C_30
REMARK   11  A    between atoms: N_29  and  C_31
REMARK                            x       y       z     vdW  Elec       q    Type
REMARK                         _______ _______ _______ _____ _____    ______ ____
ROOT
ATOM      1  C   UNL     1     -29.320 -12.914  19.024  0.00  0.00    +0.109 A 
ATOM      2  C   UNL     1     -28.368 -13.553  19.831  0.00  0.00    +0.029 A 
ATOM      3  C   UNL     1     -28.176 -13.136  21.148  0.00  0.00    +0.003 A 
ATOM      4  C   UNL     1     -28.923 -12.073  21.665  0.00  0.00    +0.013 A 
ATOM      5  C   UNL     1     -29.869 -11.409  20.863  0.00  0.00    +0.039 A 
ATOM      6  C   UNL     1     -30.073 -11.851  19.544  0.00  0.00    +0.041 A 
ENDROOT
BRANCH   5   7
ATOM      7  C   UNL     1     -30.643 -10.270  21.413  0.00  0.00    +0.244 C 
ATOM      8  O   UNL     1     -31.714 -10.494  22.043  0.00  0.00    -0.270 OA
ATOM      9  N   UNL     1     -30.171  -8.922  21.263  0.00  0.00    -0.310 N 
ATOM     10  H   UNL     1     -29.162  -8.766  21.047  0.00  0.00    +0.149 HD
BRANCH   9  11
ATOM     11  C   UNL     1     -30.982  -7.743  21.582  0.00  0.00    +0.128 C 
BRANCH  11  12
ATOM     12  C   UNL     1     -31.058  -6.756  20.384  0.00  0.00    +0.103 C 
BRANCH  12  13
ATOM     13  C   UNL     1     -32.350  -7.019  19.619  0.00  0.00    -0.029 A 
ATOM     14  C   UNL     1     -33.267  -5.971  19.415  0.00  0.00    +0.005 A 
ATOM     15  C   UNL     1     -34.444  -6.190  18.699  0.00  0.00    +0.000 A 
ATOM     16  C   UNL     1     -34.715  -7.456  18.171  0.00  0.00    +0.000 A 
ATOM     17  C   UNL     1     -33.806  -8.499  18.351  0.00  0.00    +0.000 A 
ATOM     18  C   UNL     1     -32.624  -8.282  19.059  0.00  0.00    +0.005 A 
ENDBRANCH  12  13
BRANCH  12  19
ATOM     19  N   UNL     1     -30.946  -5.322  20.792  0.00  0.00    -0.300 NA
ATOM     20  C   UNL     1     -31.650  -5.055  22.062  0.00  0.00    +0.105 C 
ATOM     21  C   UNL     1     -29.529  -4.938  20.972  0.00  0.00    +0.105 C 
ENDBRANCH  12  19
ENDBRANCH  11  12
ENDBRANCH   9  11
ENDBRANCH   5   7
BRANCH   1  22
ATOM     22  S   UNL     1     -29.588 -13.430  17.363  0.00  0.00    +0.072 S 
ATOM     23  O   UNL     1     -28.291 -13.932  16.797  0.00  0.00    -0.150 OA
ATOM     24  O   UNL     1     -30.603 -14.538  17.296  0.00  0.00    -0.150 OA
BRANCH  22  25
ATOM     25  N   UNL     1     -30.142 -12.083  16.420  0.00  0.00    -0.216 N 
ATOM     26  H   UNL     1     -29.763 -11.143  16.668  0.00  0.00    +0.174 HD
BRANCH  25  31
ATOM     27  C   UNL     1     -33.960 -12.395  12.125  0.00  0.00    +0.044 C 
ATOM     28  C   UNL     1     -32.946 -12.310  13.228  0.00  0.00    -0.050 A 
ATOM     29  C   UNL     1     -33.145 -11.432  14.300  0.00  0.00    +0.005 A 
ATOM     30  C   UNL     1     -32.219 -11.367  15.342  0.00  0.00    +0.025 A 
ATOM     31  C   UNL     1     -31.078 -12.186  15.335  0.00  0.00    +0.048 A 
ATOM     32  C   UNL     1     -30.893 -13.088  14.271  0.00  0.00    +0.025 A 
ATOM     33  C   UNL     1     -31.820 -13.151  13.229  0.00  0.00    +0.005 A 
ENDBRANCH  25  31
ENDBRANCH  22  25
ENDBRANCH   1  22
TORSDOF 8
ENDMDL
MODEL 8
REMARK VINA RESULT:    -3.525      2.671      6.463
REMARK INTER + INTRA:          -7.283
REMARK INTER:                  -5.383
REMARK INTRA:                  -1.900
REMARK UNBOUND:                -2.110
REMARK  Name = 
REMARK  11 active torsions:
REMARK  status: ('A' for Active; 'I' for Inactive)
REMARK    1  A    between atoms: C_1  and  C_2
REMARK    2  A    between atoms: C_5  and  N_8
REMARK    3  A    between atoms: N_8  and  S_9
REMARK    4  A    between atoms: S_9  and  C_12
REMARK    5  A    between atoms: C_16  and  C_18
REMARK    6  A    between atoms: N_20  and  C_21
REMARK    7  A    between atoms: C_21  and  C_22
REMARK    8  A    between atoms: C_22  and  C_23
REMARK    9  A    between atoms: C_22  and  N_29
REMARK   10  A    between atoms: N_29  and  C_30
REMARK   11  A    between atoms: N_29  and  C_31
REMARK                            x       y       z     vdW  Elec       q    Type
REMARK                         _______ _______ _______ _____ _____    ______ ____
ROOT
ATOM      1  C   UNL     1     -31.680 -12.522  16.112  0.00  0.00    +0.109 A 
ATOM      2  C   UNL     1     -31.904 -12.893  14.778  0.00  0.00    +0.029 A 
ATOM      3  C   UNL     1     -32.671 -12.079  13.945  0.00  0.00    +0.003 A 
ATOM      4  C   UNL     1     -33.229 -10.896  14.438  0.00  0.00    +0.013 A 
ATOM      5  C   UNL     1     -33.029 -10.517  15.779  0.00  0.00    +0.039 A 
ATOM      6  C   UNL     1     -32.235 -11.332  16.605  0.00  0.00    +0.041 A 
ENDROOT
BRANCH   5   7
ATOM      7  C   UNL     1     -33.640  -9.271  16.299  0.00  0.00    +0.244 C 
ATOM      8  O   UNL     1     -33.891  -8.324  15.504  0.00  0.00    -0.270 OA
ATOM      9  N   UNL     1     -33.976  -9.144  17.691  0.00  0.00    -0.310 N 
ATOM     10  H   UNL     1     -34.076 -10.011  18.263  0.00  0.00    +0.149 HD
BRANCH   9  11
ATOM     11  C   UNL     1     -34.373  -7.877  18.312  0.00  0.00    +0.128 C 
BRANCH  11  12
ATOM     12  C   UNL     1     -34.270  -7.939  19.861  0.00  0.00    +0.103 C 
BRANCH  12  13
ATOM     13  C   UNL     1     -32.984  -8.668  20.234  0.00  0.00    -0.029 A 
ATOM     14  C   UNL     1     -31.740  -8.121  19.866  0.00  0.00    +0.005 A 
ATOM     15  C   UNL     1     -30.553  -8.765  20.218  0.00  0.00    +0.000 A 
ATOM     16  C   UNL     1     -30.594  -9.956  20.948  0.00  0.00    +0.000 A 
ATOM     17  C   UNL     1     -31.820 -10.499  21.334  0.00  0.00    +0.000 A 
ATOM     18  C   UNL     1     -33.009  -9.855  20.992  0.00  0.00    +0.005 A 
ENDBRANCH  12  13
BRANCH  12  19
ATOM     19  N   UNL     1     -34.347  -6.596  20.513  0.00  0.00    -0.300 NA
ATOM     20  C   UNL     1     -35.057  -5.615  19.667  0.00  0.00    +0.105 C 
ATOM     21  C   UNL     1     -35.062  -6.680  21.805  0.00  0.00    +0.105 C 
ENDBRANCH  12  19
ENDBRANCH  11  12
ENDBRANCH   9  11
ENDBRANCH   5   7
BRANCH   1  22
ATOM     22  S   UNL     1     -30.705 -13.527  17.177  0.00  0.00    +0.072 S 
ATOM     23  O   UNL     1     -31.570 -14.620  17.736  0.00  0.00    -0.150 OA
ATOM     24  O   UNL     1     -29.558 -14.153  16.435  0.00  0.00    -0.150 OA
BRANCH  22  25
ATOM     25  N   UNL     1     -30.090 -12.560  18.481  0.00  0.00    -0.216 N 
ATOM     26  H   UNL     1     -30.496 -11.606  18.597  0.00  0.00    +0.174 HD
BRANCH  25  31
ATOM     27  C   UNL     1     -25.909 -14.239  22.063  0.00  0.00    +0.044 C 
ATOM     28  C   UNL     1     -27.009 -13.787  21.148  0.00  0.00    -0.050 A 
ATOM     29  C   UNL     1     -26.702 -13.224  19.903  0.00  0.00    +0.005 A 
ATOM     30  C   UNL     1     -27.722 -12.825  19.036  0.00  0.00    +0.025 A 
ATOM     31  C   UNL     1     -29.069 -12.992  19.395  0.00  0.00    +0.048 A 
ATOM     32  C   UNL     1     -29.376 -13.585  20.634  0.00  0.00    +0.025 A 
ATOM     33  C   UNL     1     -28.356 -13.981  21.501  0.00  0.00    +0.005 A 
ENDBRANCH  25  31
ENDBRANCH  22  25
ENDBRANCH   1  22
TORSDOF 8
ENDMDL
