MODEL 1
REMARK VINA RESULT:    -4.265      0.000      0.000
REMARK INTER + INTRA:          -7.527
REMARK INTER:                  -6.010
REMARK INTRA:                  -1.517
REMARK UNBOUND:                -1.517
REMARK  Name = 
REMARK  9 active torsions:
REMARK  status: ('A' for Active; 'I' for Inactive)
REMARK    1  A    between atoms: C_1  and  C_2
REMARK    2  A    between atoms: C_2  and  O_3
REMARK    3  A    between atoms: O_3  and  C_4
REMARK    4  A    between atoms: C_7  and  S_10
REMARK    5  A    between atoms: S_10  and  N_13
REMARK    6  A    between atoms: N_13  and  C_14
REMARK    7  A    between atoms: C_18  and  C_20
REMARK    8  A    between atoms: N_22  and  C_23
REMARK    9  A    between atoms: C_26  and  C_27
REMARK                            x       y       z     vdW  Elec       q    Type
REMARK                         _______ _______ _______ _____ _____    ______ ____
ROOT
ATOM      1  C   UNL     1     -30.994  -9.195  20.064  0.00  0.00    +0.049 A 
ATOM      2  C   UNL     1     -30.768  -9.581  21.397  0.00  0.00    +0.024 A 
ATOM      3  C   UNL     1     -30.028 -10.729  21.683  0.00  0.00    +0.003 A 
ATOM      4  C   UNL     1     -29.506 -11.506  20.648  0.00  0.00    +0.013 A 
ATOM      5  C   UNL     1     -29.717 -11.140  19.308  0.00  0.00    +0.039 A 
ATOM      6  C   UNL     1     -30.474  -9.988  19.028  0.00  0.00    +0.037 A 
ENDROOT
BRANCH   5   7
ATOM      7  C   UNL     1     -29.182 -11.969  18.198  0.00  0.00    +0.249 C 
ATOM      8  O   UNL     1     -27.992 -11.798  17.818  0.00  0.00    -0.270 OA
ATOM      9  N   UNL     1     -29.994 -12.979  17.574  0.00  0.00    -0.266 N 
ATOM     10  H   UNL     1     -30.810 -13.360  18.104  0.00  0.00    +0.157 HD
BRANCH   9  11
ATOM     11  C   UNL     1     -29.731 -13.515  16.266  0.00  0.00    +0.125 A 
ATOM     12  C   UNL     1     -30.650 -13.307  15.226  0.00  0.00    +0.044 A 
ATOM     13  C   UNL     1     -30.379 -13.816  13.954  0.00  0.00    +0.008 A 
ATOM     14  C   UNL     1     -29.200 -14.537  13.724  0.00  0.00    -0.032 A 
ATOM     15  C   UNL     1     -28.883 -15.059  12.354  0.00  0.00    +0.045 C 
ATOM     16  C   UNL     1     -28.293 -14.703  14.782  0.00  0.00    +0.116 A 
ATOM     17  N   UNL     1     -28.578 -14.196  16.010  0.00  0.00    -0.240 NA
ENDBRANCH   9  11
ENDBRANCH   5   7
BRANCH   1  18
ATOM     18  N   UNL     1     -31.752  -8.018  19.734  0.00  0.00    -0.216 N 
ATOM     19  H   UNL     1     -31.312  -7.079  19.859  0.00  0.00    +0.174 HD
BRANCH  18  20
ATOM     20  S   UNL     1     -33.431  -8.046  19.293  0.00  0.00    +0.072 S 
ATOM     21  O   UNL     1     -33.872  -6.654  18.937  0.00  0.00    -0.150 OA
ATOM     22  O   UNL     1     -34.245  -8.529  20.461  0.00  0.00    -0.150 OA
BRANCH  20  26
ATOM     23  C   UNL     1     -34.102 -10.886  15.771  0.00  0.00    +0.121 A 
ATOM     24  C   UNL     1     -34.144 -11.369  17.086  0.00  0.00    +0.047 A 
ATOM     25  C   UNL     1     -33.928 -10.510  18.166  0.00  0.00    +0.032 A 
ATOM     26  C   UNL     1     -33.671  -9.150  17.943  0.00  0.00    +0.109 A 
ATOM     27  C   UNL     1     -33.624  -8.661  16.631  0.00  0.00    +0.032 A 
ATOM     28  C   UNL     1     -33.838  -9.520  15.549  0.00  0.00    +0.047 A 
BRANCH  23  29
ATOM     29  O   UNL     1     -34.325 -11.790  14.722  0.00  0.00    -0.492 OA
BRANCH  29  31
ATOM     30  C   UNL     1     -33.817 -12.806  12.602  0.00  0.00    +0.048 C 
ATOM     31  C   UNL     1     -34.072 -11.506  13.348  0.00  0.00    +0.225 C 
ENDBRANCH  29  31
ENDBRANCH  23  29
ENDBRANCH  20  26
ENDBRANCH  18  20
ENDBRANCH   1  18
TORSDOF 7
ENDMDL
MODEL 2
REMARK VINA RESULT:    -3.542      1.972      2.219
REMARK INTER + INTRA:          -6.509
REMARK INTER:                  -6.017
REMARK INTRA:                  -0.492
REMARK UNBOUND:                -1.517
REMARK  Name = 
REMARK  9 active torsions:
REMARK  status: ('A' for Active; 'I' for Inactive)
REMARK    1  A    between atoms: C_1  and  C_2
REMARK    2  A    between atoms: C_2  and  O_3
REMARK    3  A    between atoms: O_3  and  C_4
REMARK    4  A    between atoms: C_7  and  S_10
REMARK    5  A    between atoms: S_10  and  N_13
REMARK    6  A    between atoms: N_13  and  C_14
REMARK    7  A    between atoms: C_18  and  C_20
REMARK    8  A    between atoms: N_22  and  C_23
REMARK    9  A    between atoms: C_26  and  C_27
REMARK                            x       y       z     vdW  Elec       q    Type
REMARK                         _______ _______ _______ _____ _____    ______ ____
ROOT
ATOM      1  C   UNL     1     -33.927  -9.691  20.029  0.00  0.00    +0.049 A 
ATOM      2  C   UNL     1     -33.779  -9.724  21.427  0.00  0.00    +0.024 A 
ATOM      3  C   UNL     1     -32.967 -10.686  22.027  0.00  0.00    +0.003 A 
ATOM      4  C   UNL     1     -32.293 -11.626  21.245  0.00  0.00    +0.013 A 
ATOM      5  C   UNL     1     -32.423 -11.612  19.846  0.00  0.00    +0.039 A 
ATOM      6  C   UNL     1     -33.254 -10.646  19.250  0.00  0.00    +0.037 A 
ENDROOT
BRANCH   5   7
ATOM      7  C   UNL     1     -31.726 -12.617  19.005  0.00  0.00    +0.249 C 
ATOM      8  O   UNL     1     -30.986 -13.477  19.556  0.00  0.00    -0.270 OA
ATOM      9  N   UNL     1     -31.908 -12.639  17.578  0.00  0.00    -0.266 N 
ATOM     10  H   UNL     1     -32.764 -12.193  17.179  0.00  0.00    +0.157 HD
BRANCH   9  11
ATOM     11  C   UNL     1     -30.986 -13.265  16.669  0.00  0.00    +0.125 A 
ATOM     12  C   UNL     1     -31.429 -13.696  15.410  0.00  0.00    +0.044 A 
ATOM     13  C   UNL     1     -30.524 -14.288  14.526  0.00  0.00    +0.008 A 
ATOM     14  C   UNL     1     -29.185 -14.457  14.902  0.00  0.00    -0.032 A 
ATOM     15  C   UNL     1     -28.197 -15.061  13.948  0.00  0.00    +0.045 C 
ATOM     16  C   UNL     1     -28.774 -13.991  16.160  0.00  0.00    +0.116 A 
ATOM     17  N   UNL     1     -29.673 -13.416  17.002  0.00  0.00    -0.240 NA
ENDBRANCH   9  11
ENDBRANCH   5   7
BRANCH   1  18
ATOM     18  N   UNL     1     -34.758  -8.713  19.378  0.00  0.00    -0.216 N 
ATOM     19  H   UNL     1     -35.773  -8.667  19.620  0.00  0.00    +0.174 HD
BRANCH  18  20
ATOM     20  S   UNL     1     -34.215  -7.702  18.076  0.00  0.00    +0.072 S 
ATOM     21  O   UNL     1     -32.787  -7.303  18.321  0.00  0.00    -0.150 OA
ATOM     22  O   UNL     1     -35.062  -6.462  18.021  0.00  0.00    -0.150 OA
BRANCH  20  26
ATOM     23  C   UNL     1     -34.690  -9.934  14.111  0.00  0.00    +0.121 A 
ATOM     24  C   UNL     1     -34.283 -10.620  15.263  0.00  0.00    +0.047 A 
ATOM     25  C   UNL     1     -34.124  -9.942  16.475  0.00  0.00    +0.032 A 
ATOM     26  C   UNL     1     -34.376  -8.565  16.549  0.00  0.00    +0.109 A 
ATOM     27  C   UNL     1     -34.780  -7.873  15.401  0.00  0.00    +0.032 A 
ATOM     28  C   UNL     1     -34.938  -8.549  14.187  0.00  0.00    +0.047 A 
BRANCH  23  29
ATOM     29  O   UNL     1     -34.835 -10.660  12.921  0.00  0.00    -0.492 OA
BRANCH  29  31
ATOM     30  C   UNL     1     -33.159 -12.158  12.062  0.00  0.00    +0.048 C 
ATOM     31  C   UNL     1     -34.497 -12.038  12.773  0.00  0.00    +0.225 C 
ENDBRANCH  29  31
ENDBRANCH  23  29
ENDBRANCH  20  26
ENDBRANCH  18  20
ENDBRANCH   1  18
TORSDOF 7
ENDMDL
MODEL 3
REMARK VINA RESULT:    -3.491      2.948      7.813
REMARK INTER + INTRA:          -6.437
REMARK INTER:                  -4.718
REMARK INTRA:                  -1.719
REMARK UNBOUND:                -1.517
REMARK  Name = 
REMARK  9 active torsions:
REMARK  status: ('A' for Active; 'I' for Inactive)
REMARK    1  A    between atoms: C_1  and  C_2
REMARK    2  A    between atoms: C_2  and  O_3
REMARK    3  A    between atoms: O_3  and  C_4
REMARK    4  A    between atoms: C_7  and  S_10
REMARK    5  A    between atoms: S_10  and  N_13
REMARK    6  A    between atoms: N_13  and  C_14
REMARK    7  A    between atoms: C_18  and  C_20
REMARK    8  A    between atoms: N_22  and  C_23
REMARK    9  A    between atoms: C_26  and  C_27
REMARK                            x       y       z     vdW  Elec       q    Type
REMARK                         _______ _______ _______ _____ _____    ______ ____
ROOT
ATOM      1  C   UNL     1     -32.202 -12.140  13.751  0.00  0.00    +0.049 A 
ATOM      2  C   UNL     1     -33.222 -12.593  12.896  0.00  0.00    +0.024 A 
ATOM      3  C   UNL     1     -34.463 -11.956  12.881  0.00  0.00    +0.003 A 
ATOM      4  C   UNL     1     -34.705 -10.863  13.714  0.00  0.00    +0.013 A 
ATOM      5  C   UNL     1     -33.701 -10.390  14.576  0.00  0.00    +0.039 A 
ATOM      6  C   UNL     1     -32.456 -11.046  14.594  0.00  0.00    +0.037 A 
ENDROOT
BRANCH   5   7
ATOM      7  C   UNL     1     -33.951  -9.240  15.480  0.00  0.00    +0.249 C 
ATOM      8  O   UNL     1     -34.022  -8.078  14.996  0.00  0.00    -0.270 OA
ATOM      9  N   UNL     1     -34.141  -9.439  16.892  0.00  0.00    -0.266 N 
ATOM     10  H   UNL     1     -34.440 -10.383  17.226  0.00  0.00    +0.157 HD
BRANCH   9  11
ATOM     11  C   UNL     1     -33.967  -8.402  17.872  0.00  0.00    +0.125 A 
ATOM     12  C   UNL     1     -35.054  -7.596  18.240  0.00  0.00    +0.044 A 
ATOM     13  C   UNL     1     -34.880  -6.601  19.205  0.00  0.00    +0.008 A 
ATOM     14  C   UNL     1     -33.623  -6.405  19.792  0.00  0.00    -0.032 A 
ATOM     15  C   UNL     1     -33.434  -5.362  20.854  0.00  0.00    +0.045 C 
ATOM     16  C   UNL     1     -32.566  -7.248  19.417  0.00  0.00    +0.116 A 
ATOM     17  N   UNL     1     -32.760  -8.210  18.478  0.00  0.00    -0.240 NA
ENDBRANCH   9  11
ENDBRANCH   5   7
BRANCH   1  18
ATOM     18  N   UNL     1     -30.911 -12.773  13.794  0.00  0.00    -0.216 N 
ATOM     19  H   UNL     1     -30.322 -12.785  12.930  0.00  0.00    +0.174 HD
BRANCH  18  20
ATOM     20  S   UNL     1     -30.327 -13.681  15.153  0.00  0.00    +0.072 S 
ATOM     21  O   UNL     1     -28.832 -13.804  15.060  0.00  0.00    -0.150 OA
ATOM     22  O   UNL     1     -30.930 -15.058  15.130  0.00  0.00    -0.150 OA
BRANCH  20  26
ATOM     23  C   UNL     1     -31.605 -11.574  19.007  0.00  0.00    +0.121 A 
ATOM     24  C   UNL     1     -30.346 -11.319  18.447  0.00  0.00    +0.047 A 
ATOM     25  C   UNL     1     -29.945 -11.968  17.276  0.00  0.00    +0.032 A 
ATOM     26  C   UNL     1     -30.803 -12.881  16.648  0.00  0.00    +0.109 A 
ATOM     27  C   UNL     1     -32.062 -13.143  17.204  0.00  0.00    +0.032 A 
ATOM     28  C   UNL     1     -32.464 -12.495  18.376  0.00  0.00    +0.047 A 
BRANCH  23  29
ATOM     29  O   UNL     1     -31.960 -10.897  20.182  0.00  0.00    -0.492 OA
BRANCH  29  31
ATOM     30  C   UNL     1     -33.253 -10.134  22.062  0.00  0.00    +0.048 C 
ATOM     31  C   UNL     1     -33.267 -10.907  20.753  0.00  0.00    +0.225 C 
ENDBRANCH  29  31
ENDBRANCH  23  29
ENDBRANCH  20  26
ENDBRANCH  18  20
ENDBRANCH   1  18
TORSDOF 7
ENDMDL
MODEL 4
REMARK VINA RESULT:    -3.406      2.385      5.944
REMARK INTER + INTRA:          -6.318
REMARK INTER:                  -6.305
REMARK INTRA:                  -0.012
REMARK UNBOUND:                -1.517
REMARK  Name = 
REMARK  9 active torsions:
REMARK  status: ('A' for Active; 'I' for Inactive)
REMARK    1  A    between atoms: C_1  and  C_2
REMARK    2  A    between atoms: C_2  and  O_3
REMARK    3  A    between atoms: O_3  and  C_4
REMARK    4  A    between atoms: C_7  and  S_10
REMARK    5  A    between atoms: S_10  and  N_13
REMARK    6  A    between atoms: N_13  and  C_14
REMARK    7  A    between atoms: C_18  and  C_20
REMARK    8  A    between atoms: N_22  and  C_23
REMARK    9  A    between atoms: C_26  and  C_27
REMARK                            x       y       z     vdW  Elec       q    Type
REMARK                         _______ _______ _______ _____ _____    ______ ____
ROOT
ATOM      1  C   UNL     1     -32.371 -11.833  13.739  0.00  0.00    +0.049 A 
ATOM      2  C   UNL     1     -32.126 -12.468  12.509  0.00  0.00    +0.024 A 
ATOM      3  C   UNL     1     -31.214 -13.521  12.429  0.00  0.00    +0.003 A 
ATOM      4  C   UNL     1     -30.537 -13.954  13.570  0.00  0.00    +0.013 A 
ATOM      5  C   UNL     1     -30.766 -13.337  14.810  0.00  0.00    +0.039 A 
ATOM      6  C   UNL     1     -31.678 -12.267  14.880  0.00  0.00    +0.037 A 
ENDROOT
BRANCH   5   7
ATOM      7  C   UNL     1     -30.038 -13.776  16.027  0.00  0.00    +0.249 C 
ATOM      8  O   UNL     1     -30.270 -14.919  16.507  0.00  0.00    -0.270 OA
ATOM      9  N   UNL     1     -29.055 -12.927  16.646  0.00  0.00    -0.266 N 
ATOM     10  H   UNL     1     -28.613 -12.176  16.070  0.00  0.00    +0.157 HD
BRANCH   9  11
ATOM     11  C   UNL     1     -28.626 -13.071  18.011  0.00  0.00    +0.125 A 
ATOM     12  C   UNL     1     -29.533 -13.508  18.987  0.00  0.00    +0.044 A 
ATOM     13  C   UNL     1     -29.105 -13.660  20.308  0.00  0.00    +0.008 A 
ATOM     14  C   UNL     1     -27.779 -13.369  20.653  0.00  0.00    -0.032 A 
ATOM     15  C   UNL     1     -27.300 -13.562  22.062  0.00  0.00    +0.045 C 
ATOM     16  C   UNL     1     -26.894 -12.958  19.645  0.00  0.00    +0.116 A 
ATOM     17  N   UNL     1     -27.334 -12.819  18.366  0.00  0.00    -0.240 NA
ENDBRANCH   9  11
ENDBRANCH   5   7
BRANCH   1  18
ATOM     18  N   UNL     1     -33.303 -10.743  13.856  0.00  0.00    -0.216 N 
ATOM     19  H   UNL     1     -33.396 -10.066  13.066  0.00  0.00    +0.174 HD
BRANCH  18  20
ATOM     20  S   UNL     1     -34.177 -10.376  15.311  0.00  0.00    +0.072 S 
ATOM     21  O   UNL     1     -35.035 -11.552  15.683  0.00  0.00    -0.150 OA
ATOM     22  O   UNL     1     -35.062  -9.185  15.073  0.00  0.00    -0.150 OA
BRANCH  20  26
ATOM     23  C   UNL     1     -31.200  -9.414  18.648  0.00  0.00    +0.121 A 
ATOM     24  C   UNL     1     -32.531  -9.725  18.957  0.00  0.00    +0.047 A 
ATOM     25  C   UNL     1     -33.448 -10.008  17.942  0.00  0.00    +0.032 A 
ATOM     26  C   UNL     1     -33.042  -9.988  16.600  0.00  0.00    +0.109 A 
ATOM     27  C   UNL     1     -31.714  -9.674  16.284  0.00  0.00    +0.032 A 
ATOM     28  C   UNL     1     -30.795  -9.389  17.298  0.00  0.00    +0.047 A 
BRANCH  23  29
ATOM     29  O   UNL     1     -30.319  -9.139  19.703  0.00  0.00    -0.492 OA
BRANCH  29  31
ATOM     30  C   UNL     1     -29.929 -10.487  21.657  0.00  0.00    +0.048 C 
ATOM     31  C   UNL     1     -30.648  -9.277  21.083  0.00  0.00    +0.225 C 
ENDBRANCH  29  31
ENDBRANCH  23  29
ENDBRANCH  20  26
ENDBRANCH  18  20
ENDBRANCH   1  18
TORSDOF 7
ENDMDL
MODEL 5
REMARK VINA RESULT:    -3.177      2.976      7.892
REMARK INTER + INTRA:          -5.994
REMARK INTER:                  -4.425
REMARK INTRA:                  -1.569
REMARK UNBOUND:                -1.517
REMARK  Name = 
REMARK  9 active torsions:
REMARK  status: ('A' for Active; 'I' for Inactive)
REMARK    1  A    between atoms: C_1  and  C_2
REMARK    2  A    between atoms: C_2  and  O_3
REMARK    3  A    between atoms: O_3  and  C_4
REMARK    4  A    between atoms: C_7  and  S_10
REMARK    5  A    between atoms: S_10  and  N_13
REMARK    6  A    between atoms: N_13  and  C_14
REMARK    7  A    between atoms: C_18  and  C_20
REMARK    8  A    between atoms: N_22  and  C_23
REMARK    9  A    between atoms: C_26  and  C_27
REMARK                            x       y       z     vdW  Elec       q    Type
REMARK                         _______ _______ _______ _____ _____    ______ ____
ROOT
ATOM      1  C   UNL     1     -33.470 -12.351  13.079  0.00  0.00    +0.049 A 
ATOM      2  C   UNL     1     -34.318 -11.973  12.023  0.00  0.00    +0.024 A 
ATOM      3  C   UNL     1     -35.046 -10.785  12.093  0.00  0.00    +0.003 A 
ATOM      4  C   UNL     1     -34.940  -9.960  13.213  0.00  0.00    +0.013 A 
ATOM      5  C   UNL     1     -34.099 -10.314  14.281  0.00  0.00    +0.039 A 
ATOM      6  C   UNL     1     -33.377 -11.520  14.208  0.00  0.00    +0.037 A 
ENDROOT
BRANCH   5   7
ATOM      7  C   UNL     1     -33.992  -9.454  15.486  0.00  0.00    +0.249 C 
ATOM      8  O   UNL     1     -34.213  -8.216  15.383  0.00  0.00    -0.270 OA
ATOM      9  N   UNL     1     -33.669 -10.018  16.770  0.00  0.00    -0.266 N 
ATOM     10  H   UNL     1     -33.844 -11.036  16.924  0.00  0.00    +0.157 HD
BRANCH   9  11
ATOM     11  C   UNL     1     -33.140  -9.251  17.865  0.00  0.00    +0.125 A 
ATOM     12  C   UNL     1     -31.753  -9.160  18.051  0.00  0.00    +0.044 A 
ATOM     13  C   UNL     1     -31.247  -8.400  19.108  0.00  0.00    +0.008 A 
ATOM     14  C   UNL     1     -32.123  -7.741  19.980  0.00  0.00    -0.032 A 
ATOM     15  C   UNL     1     -31.589  -6.894  21.097  0.00  0.00    +0.045 C 
ATOM     16  C   UNL     1     -33.503  -7.834  19.747  0.00  0.00    +0.116 A 
ATOM     17  N   UNL     1     -33.972  -8.579  18.711  0.00  0.00    -0.240 NA
ENDBRANCH   9  11
ENDBRANCH   5   7
BRANCH   1  18
ATOM     18  N   UNL     1     -32.706 -13.569  13.040  0.00  0.00    -0.216 N 
ATOM     19  H   UNL     1     -33.197 -14.471  12.849  0.00  0.00    +0.174 HD
BRANCH  18  20
ATOM     20  S   UNL     1     -31.025 -13.665  13.462  0.00  0.00    +0.072 S 
ATOM     21  O   UNL     1     -30.287 -12.526  12.816  0.00  0.00    -0.150 OA
ATOM     22  O   UNL     1     -30.457 -14.961  12.954  0.00  0.00    -0.150 OA
BRANCH  20  26
ATOM     23  C   UNL     1     -30.627 -13.555  18.017  0.00  0.00    +0.121 A 
ATOM     24  C   UNL     1     -30.355 -12.410  17.257  0.00  0.00    +0.047 A 
ATOM     25  C   UNL     1     -30.463 -12.440  15.864  0.00  0.00    +0.032 A 
ATOM     26  C   UNL     1     -30.850 -13.620  15.213  0.00  0.00    +0.109 A 
ATOM     27  C   UNL     1     -31.120 -14.769  15.967  0.00  0.00    +0.032 A 
ATOM     28  C   UNL     1     -31.011 -14.741  17.360  0.00  0.00    +0.047 A 
BRANCH  23  29
ATOM     29  O   UNL     1     -30.505 -13.473  19.412  0.00  0.00    -0.492 OA
BRANCH  29  31
ATOM     30  C   UNL     1     -30.881 -11.758  21.056  0.00  0.00    +0.048 C 
ATOM     31  C   UNL     1     -29.882 -12.391  20.101  0.00  0.00    +0.225 C 
ENDBRANCH  29  31
ENDBRANCH  23  29
ENDBRANCH  20  26
ENDBRANCH  18  20
ENDBRANCH   1  18
TORSDOF 7
ENDMDL
