MODEL 1
REMARK VINA RESULT:    -5.130      0.000      0.000
REMARK INTER + INTRA:          -9.433
REMARK INTER:                  -7.380
REMARK INTRA:                  -2.054
REMARK UNBOUND:                -2.054
REMARK  Name = 
REMARK  10 active torsions:
REMARK  status: ('A' for Active; 'I' for Inactive)
REMARK    1  A    between atoms: C_1  and  C_2
REMARK    2  A    between atoms: C_2  and  C_4
REMARK    3  A    between atoms: C_7  and  S_10
REMARK    4  A    between atoms: S_10  and  N_13
REMARK    5  A    between atoms: N_13  and  C_14
REMARK    6  A    between atoms: C_14  and  C_15
REMARK    7  A    between atoms: C_14  and  C_19
REMARK    8  A    between atoms: C_15  and  C_16
REMARK    9  A    between atoms: C_16  and  O_18
REMARK   10  A    between atoms: C_22  and  C_23
REMARK                            x       y       z     vdW  Elec       q    Type
REMARK                         _______ _______ _______ _____ _____    ______ ____
ROOT
ATOM      1  N   UNL     1     -30.320 -11.215  20.077  0.00  0.00    -0.182 NA
ATOM      2  H   UNL     1     -30.297 -10.865  21.062  0.00  0.00    +0.149 HD
ENDROOT
BRANCH   1   3
ATOM      3  S   UNL     1     -30.047  -9.859  19.020  0.00  0.00    +0.059 S 
ATOM      4  O   UNL     1     -30.174  -8.579  19.799  0.00  0.00    -0.153 OA
ATOM      5  O   UNL     1     -28.651  -9.939  18.467  0.00  0.00    -0.153 OA
BRANCH   3   9
ATOM      6  C   UNL     1     -33.044  -9.968  15.555  0.00  0.00    +0.017 A 
ATOM      7  C   UNL     1     -33.470  -9.658  16.862  0.00  0.00    +0.013 A 
ATOM      8  C   UNL     1     -32.553  -9.607  17.915  0.00  0.00    +0.029 A 
ATOM      9  C   UNL     1     -31.197  -9.865  17.684  0.00  0.00    +0.105 A 
ATOM     10  C   UNL     1     -30.764 -10.176  16.391  0.00  0.00    +0.029 A 
ATOM     11  C   UNL     1     -31.678 -10.226  15.335  0.00  0.00    +0.013 A 
BRANCH   6  13
ATOM     12  C   UNL     1     -34.222 -11.288  13.634  0.00  0.00    +0.091 C 
ATOM     13  C   UNL     1     -34.006 -10.032  14.423  0.00  0.00    +0.160 C 
ATOM     14  O   UNL     1     -34.667  -9.005  14.105  0.00  0.00    -0.292 OA
ENDBRANCH   6  13
ENDBRANCH   3   9
ENDBRANCH   1   3
BRANCH   1  15
ATOM     15  C   UNL     1     -29.326 -12.286  19.869  0.00  0.00    +0.117 C 
BRANCH  15  16
ATOM     16  C   UNL     1     -29.647 -13.011  18.577  0.00  0.00    -0.028 A 
ATOM     17  C   UNL     1     -30.939 -13.516  18.349  0.00  0.00    +0.005 A 
ATOM     18  C   UNL     1     -31.246 -14.162  17.149  0.00  0.00    +0.003 A 
ATOM     19  C   UNL     1     -30.265 -14.322  16.160  0.00  0.00    -0.050 A 
ATOM     20  C   UNL     1     -30.607 -14.979  14.855  0.00  0.00    +0.044 C 
ATOM     21  C   UNL     1     -28.982 -13.797  16.371  0.00  0.00    +0.003 A 
ATOM     22  C   UNL     1     -28.673 -13.150  17.571  0.00  0.00    +0.005 A 
ENDBRANCH  15  16
BRANCH  15  23
ATOM     23  C   UNL     1     -29.300 -13.277  21.056  0.00  0.00    +0.145 C 
BRANCH  23  24
ATOM     24  C   UNL     1     -27.937 -13.870  21.245  0.00  0.00    +0.307 C 
ATOM     25  O   UNL     1     -27.079 -13.268  21.945  0.00  0.00    -0.251 OA
BRANCH  24  26
ATOM     26  O   UNL     1     -27.605 -15.062  20.610  0.00  0.00    -0.481 OA
ATOM     27  H   UNL     1     -28.244 -15.497  19.954  0.00  0.00    +0.295 HD
ENDBRANCH  24  26
ENDBRANCH  23  24
ENDBRANCH  15  23
ENDBRANCH   1  15
TORSDOF 8
ENDMDL
MODEL 2
REMARK VINA RESULT:    -5.063      2.197      3.601
REMARK INTER + INTRA:          -9.337
REMARK INTER:                  -6.573
REMARK INTRA:                  -2.764
REMARK UNBOUND:                -2.054
REMARK  Name = 
REMARK  10 active torsions:
REMARK  status: ('A' for Active; 'I' for Inactive)
REMARK    1  A    between atoms: C_1  and  C_2
REMARK    2  A    between atoms: C_2  and  C_4
REMARK    3  A    between atoms: C_7  and  S_10
REMARK    4  A    between atoms: S_10  and  N_13
REMARK    5  A    between atoms: N_13  and  C_14
REMARK    6  A    between atoms: C_14  and  C_15
REMARK    7  A    between atoms: C_14  and  C_19
REMARK    8  A    between atoms: C_15  and  C_16
REMARK    9  A    between atoms: C_16  and  O_18
REMARK   10  A    between atoms: C_22  and  C_23
REMARK                            x       y       z     vdW  Elec       q    Type
REMARK                         _______ _______ _______ _____ _____    ______ ____
ROOT
ATOM      1  N   UNL     1     -28.093 -11.669  19.952  0.00  0.00    -0.182 NA
ATOM      2  H   UNL     1     -27.133 -11.859  20.321  0.00  0.00    +0.149 HD
ENDROOT
BRANCH   1   3
ATOM      3  S   UNL     1     -27.983 -11.513  18.222  0.00  0.00    +0.059 S 
ATOM      4  O   UNL     1     -26.911 -10.518  17.874  0.00  0.00    -0.153 OA
ATOM      5  O   UNL     1     -27.605 -12.842  17.630  0.00  0.00    -0.153 OA
BRANCH   3   9
ATOM      6  C   UNL     1     -32.036 -10.220  16.518  0.00  0.00    +0.017 A 
ATOM      7  C   UNL     1     -31.319  -9.370  17.386  0.00  0.00    +0.013 A 
ATOM      8  C   UNL     1     -30.075  -9.758  17.891  0.00  0.00    +0.029 A 
ATOM      9  C   UNL     1     -29.525 -10.997  17.541  0.00  0.00    +0.105 A 
ATOM     10  C   UNL     1     -30.229 -11.847  16.683  0.00  0.00    +0.029 A 
ATOM     11  C   UNL     1     -31.473 -11.463  16.174  0.00  0.00    +0.013 A 
BRANCH   6  13
ATOM     12  C   UNL     1     -34.465 -10.823  15.772  0.00  0.00    +0.091 C 
ATOM     13  C   UNL     1     -33.363  -9.826  15.974  0.00  0.00    +0.160 C 
ATOM     14  O   UNL     1     -33.583  -8.622  15.669  0.00  0.00    -0.292 OA
ENDBRANCH   6  13
ENDBRANCH   3   9
ENDBRANCH   1   3
BRANCH   1  15
ATOM     15  C   UNL     1     -29.037 -12.732  20.352  0.00  0.00    +0.117 C 
BRANCH  15  16
ATOM     16  C   UNL     1     -30.353 -12.097  20.753  0.00  0.00    -0.028 A 
ATOM     17  C   UNL     1     -30.381 -11.066  21.709  0.00  0.00    +0.005 A 
ATOM     18  C   UNL     1     -31.589 -10.459  22.062  0.00  0.00    +0.003 A 
ATOM     19  C   UNL     1     -32.791 -10.879  21.473  0.00  0.00    -0.050 A 
ATOM     20  C   UNL     1     -34.082 -10.199  21.823  0.00  0.00    +0.044 C 
ATOM     21  C   UNL     1     -32.766 -11.889  20.501  0.00  0.00    +0.003 A 
ATOM     22  C   UNL     1     -31.557 -12.496  20.146  0.00  0.00    +0.005 A 
ENDBRANCH  15  16
BRANCH  15  23
ATOM     23  C   UNL     1     -28.472 -13.589  21.509  0.00  0.00    +0.145 C 
BRANCH  23  24
ATOM     24  C   UNL     1     -27.216 -14.299  21.103  0.00  0.00    +0.307 C 
ATOM     25  O   UNL     1     -26.491 -14.846  21.976  0.00  0.00    -0.251 OA
BRANCH  24  26
ATOM     26  O   UNL     1     -26.830 -14.313  19.767  0.00  0.00    -0.481 OA
ATOM     27  H   UNL     1     -27.511 -14.460  19.030  0.00  0.00    +0.295 HD
ENDBRANCH  24  26
ENDBRANCH  23  24
ENDBRANCH  15  23
ENDBRANCH   1  15
TORSDOF 8
ENDMDL
MODEL 3
REMARK VINA RESULT:    -4.804      2.067      6.262
REMARK INTER + INTRA:          -8.963
REMARK INTER:                  -6.743
REMARK INTRA:                  -2.220
REMARK UNBOUND:                -2.054
REMARK  Name = 
REMARK  10 active torsions:
REMARK  status: ('A' for Active; 'I' for Inactive)
REMARK    1  A    between atoms: C_1  and  C_2
REMARK    2  A    between atoms: C_2  and  C_4
REMARK    3  A    between atoms: C_7  and  S_10
REMARK    4  A    between atoms: S_10  and  N_13
REMARK    5  A    between atoms: N_13  and  C_14
REMARK    6  A    between atoms: C_14  and  C_15
REMARK    7  A    between atoms: C_14  and  C_19
REMARK    8  A    between atoms: C_15  and  C_16
REMARK    9  A    between atoms: C_16  and  O_18
REMARK   10  A    between atoms: C_22  and  C_23
REMARK                            x       y       z     vdW  Elec       q    Type
REMARK                         _______ _______ _______ _____ _____    ______ ____
ROOT
ATOM      1  N   UNL     1     -31.961 -10.720  16.651  0.00  0.00    -0.182 NA
ATOM      2  H   UNL     1     -32.617 -10.003  16.265  0.00  0.00    +0.149 HD
ENDROOT
BRANCH   1   3
ATOM      3  S   UNL     1     -31.645 -10.317  18.315  0.00  0.00    +0.059 S 
ATOM      4  O   UNL     1     -31.347  -8.848  18.429  0.00  0.00    -0.153 OA
ATOM      5  O   UNL     1     -32.868 -10.617  19.135  0.00  0.00    -0.153 OA
BRANCH   3   9
ATOM      6  C   UNL     1     -28.144 -12.825  19.881  0.00  0.00    +0.017 A 
ATOM      7  C   UNL     1     -27.942 -11.867  18.867  0.00  0.00    +0.013 A 
ATOM      8  C   UNL     1     -29.007 -11.090  18.402  0.00  0.00    +0.029 A 
ATOM      9  C   UNL     1     -30.289 -11.255  18.939  0.00  0.00    +0.105 A 
ATOM     10  C   UNL     1     -30.500 -12.204  19.944  0.00  0.00    +0.029 A 
ATOM     11  C   UNL     1     -29.438 -12.982  20.412  0.00  0.00    +0.013 A 
BRANCH   6  13
ATOM     12  C   UNL     1     -27.103 -14.388  21.696  0.00  0.00    +0.091 C 
ATOM     13  C   UNL     1     -27.025 -13.665  20.385  0.00  0.00    +0.160 C 
ATOM     14  O   UNL     1     -25.971 -13.780  19.700  0.00  0.00    -0.292 OA
ENDBRANCH   6  13
ENDBRANCH   3   9
ENDBRANCH   1   3
BRANCH   1  15
ATOM     15  C   UNL     1     -32.515 -12.081  16.508  0.00  0.00    +0.117 C 
BRANCH  15  16
ATOM     16  C   UNL     1     -31.626 -12.880  15.578  0.00  0.00    -0.028 A 
ATOM     17  C   UNL     1     -31.802 -12.800  14.184  0.00  0.00    +0.005 A 
ATOM     18  C   UNL     1     -30.966 -13.515  13.322  0.00  0.00    +0.003 A 
ATOM     19  C   UNL     1     -29.947 -14.328  13.836  0.00  0.00    -0.050 A 
ATOM     20  C   UNL     1     -29.024 -15.062  12.908  0.00  0.00    +0.044 C 
ATOM     21  C   UNL     1     -29.750 -14.391  15.223  0.00  0.00    +0.003 A 
ATOM     22  C   UNL     1     -30.584 -13.676  16.088  0.00  0.00    +0.005 A 
ENDBRANCH  15  16
BRANCH  15  23
ATOM     23  C   UNL     1     -33.968 -12.051  15.977  0.00  0.00    +0.145 C 
BRANCH  23  24
ATOM     24  C   UNL     1     -34.555 -10.675  16.068  0.00  0.00    +0.307 C 
ATOM     25  O   UNL     1     -34.600  -9.940  15.045  0.00  0.00    -0.251 OA
BRANCH  24  26
ATOM     26  O   UNL     1     -35.010 -10.195  17.291  0.00  0.00    -0.481 OA
ATOM     27  H   UNL     1     -35.883  -9.684  17.357  0.00  0.00    +0.295 HD
ENDBRANCH  24  26
ENDBRANCH  23  24
ENDBRANCH  15  23
ENDBRANCH   1  15
TORSDOF 8
ENDMDL
MODEL 4
REMARK VINA RESULT:    -4.734      2.366      4.006
REMARK INTER + INTRA:          -8.863
REMARK INTER:                  -5.972
REMARK INTRA:                  -2.891
REMARK UNBOUND:                -2.054
REMARK  Name = 
REMARK  10 active torsions:
REMARK  status: ('A' for Active; 'I' for Inactive)
REMARK    1  A    between atoms: C_1  and  C_2
REMARK    2  A    between atoms: C_2  and  C_4
REMARK    3  A    between atoms: C_7  and  S_10
REMARK    4  A    between atoms: S_10  and  N_13
REMARK    5  A    between atoms: N_13  and  C_14
REMARK    6  A    between atoms: C_14  and  C_15
REMARK    7  A    between atoms: C_14  and  C_19
REMARK    8  A    between atoms: C_15  and  C_16
REMARK    9  A    between atoms: C_16  and  O_18
REMARK   10  A    between atoms: C_22  and  C_23
REMARK                            x       y       z     vdW  Elec       q    Type
REMARK                         _______ _______ _______ _____ _____    ______ ____
ROOT
ATOM      1  N   UNL     1     -29.120 -13.441  18.129  0.00  0.00    -0.182 NA
ATOM      2  H   UNL     1     -28.305 -14.097  18.113  0.00  0.00    +0.149 HD
ENDROOT
BRANCH   1   3
ATOM      3  S   UNL     1     -30.367 -14.110  17.116  0.00  0.00    +0.059 S 
ATOM      4  O   UNL     1     -29.739 -14.875  15.984  0.00  0.00    -0.153 OA
ATOM      5  O   UNL     1     -31.202 -15.062  17.925  0.00  0.00    -0.153 OA
BRANCH   3   9
ATOM      6  C   UNL     1     -33.055 -10.752  15.535  0.00  0.00    +0.017 A 
ATOM      7  C   UNL     1     -31.677 -10.767  15.238  0.00  0.00    +0.013 A 
ATOM      8  C   UNL     1     -30.861 -11.801  15.705  0.00  0.00    +0.029 A 
ATOM      9  C   UNL     1     -31.404 -12.836  16.476  0.00  0.00    +0.105 A 
ATOM     10  C   UNL     1     -32.769 -12.828  16.779  0.00  0.00    +0.029 A 
ATOM     11  C   UNL     1     -33.589 -11.797  16.312  0.00  0.00    +0.013 A 
BRANCH   6  13
ATOM     12  C   UNL     1     -34.279  -8.475  15.906  0.00  0.00    +0.091 C 
ATOM     13  C   UNL     1     -33.938  -9.658  15.050  0.00  0.00    +0.160 C 
ATOM     14  O   UNL     1     -34.422  -9.713  13.887  0.00  0.00    -0.292 OA
ENDBRANCH   6  13
ENDBRANCH   3   9
ENDBRANCH   1   3
BRANCH   1  15
ATOM     15  C   UNL     1     -29.593 -13.214  19.509  0.00  0.00    +0.117 C 
BRANCH  15  16
ATOM     16  C   UNL     1     -30.299 -11.875  19.574  0.00  0.00    -0.028 A 
ATOM     17  C   UNL     1     -29.682 -10.722  19.055  0.00  0.00    +0.005 A 
ATOM     18  C   UNL     1     -30.341  -9.490  19.089  0.00  0.00    +0.003 A 
ATOM     19  C   UNL     1     -31.623  -9.387  19.648  0.00  0.00    -0.050 A 
ATOM     20  C   UNL     1     -32.345  -8.072  19.646  0.00  0.00    +0.044 C 
ATOM     21  C   UNL     1     -32.253 -10.538  20.143  0.00  0.00    +0.003 A 
ATOM     22  C   UNL     1     -31.595 -11.772  20.110  0.00  0.00    +0.005 A 
ENDBRANCH  15  16
BRANCH  15  23
ATOM     23  C   UNL     1     -28.428 -13.263  20.526  0.00  0.00    +0.145 C 
BRANCH  23  24
ATOM     24  C   UNL     1     -27.114 -13.489  19.842  0.00  0.00    +0.307 C 
ATOM     25  O   UNL     1     -26.585 -12.563  19.170  0.00  0.00    -0.251 OA
BRANCH  24  26
ATOM     26  O   UNL     1     -26.501 -14.736  19.914  0.00  0.00    -0.481 OA
ATOM     27  H   UNL     1     -26.219 -15.125  20.805  0.00  0.00    +0.295 HD
ENDBRANCH  24  26
ENDBRANCH  23  24
ENDBRANCH  15  23
ENDBRANCH   1  15
TORSDOF 8
ENDMDL
MODEL 5
REMARK VINA RESULT:    -4.626      2.794      5.041
REMARK INTER + INTRA:          -8.707
REMARK INTER:                  -6.246
REMARK INTRA:                  -2.461
REMARK UNBOUND:                -2.054
REMARK  Name = 
REMARK  10 active torsions:
REMARK  status: ('A' for Active; 'I' for Inactive)
REMARK    1  A    between atoms: C_1  and  C_2
REMARK    2  A    between atoms: C_2  and  C_4
REMARK    3  A    between atoms: C_7  and  S_10
REMARK    4  A    between atoms: S_10  and  N_13
REMARK    5  A    between atoms: N_13  and  C_14
REMARK    6  A    between atoms: C_14  and  C_15
REMARK    7  A    between atoms: C_14  and  C_19
REMARK    8  A    between atoms: C_15  and  C_16
REMARK    9  A    between atoms: C_16  and  O_18
REMARK   10  A    between atoms: C_22  and  C_23
REMARK                            x       y       z     vdW  Elec       q    Type
REMARK                         _______ _______ _______ _____ _____    ______ ____
ROOT
ATOM      1  N   UNL     1     -29.713 -14.352  18.008  0.00  0.00    -0.182 NA
ATOM      2  H   UNL     1     -29.281 -15.304  18.053  0.00  0.00    +0.149 HD
ENDROOT
BRANCH   1   3
ATOM      3  S   UNL     1     -28.783 -13.293  19.030  0.00  0.00    +0.059 S 
ATOM      4  O   UNL     1     -28.326 -14.044  20.250  0.00  0.00    -0.153 OA
ATOM      5  O   UNL     1     -27.568 -12.825  18.280  0.00  0.00    -0.153 OA
BRANCH   3   9
ATOM      6  C   UNL     1     -31.313  -9.656  20.201  0.00  0.00    +0.017 A 
ATOM      7  C   UNL     1     -31.648 -10.943  20.669  0.00  0.00    +0.013 A 
ATOM      8  C   UNL     1     -30.867 -12.049  20.326  0.00  0.00    +0.029 A 
ATOM      9  C   UNL     1     -29.738 -11.892  19.512  0.00  0.00    +0.105 A 
ATOM     10  C   UNL     1     -29.399 -10.620  19.041  0.00  0.00    +0.029 A 
ATOM     11  C   UNL     1     -30.177  -9.511  19.382  0.00  0.00    +0.013 A 
BRANCH   6  13
ATOM     12  C   UNL     1     -32.486  -7.417  19.539  0.00  0.00    +0.091 C 
ATOM     13  C   UNL     1     -32.136  -8.467  20.551  0.00  0.00    +0.160 C 
ATOM     14  O   UNL     1     -32.559  -8.325  21.731  0.00  0.00    -0.292 OA
ENDBRANCH   6  13
ENDBRANCH   3   9
ENDBRANCH   1   3
BRANCH   1  15
ATOM     15  C   UNL     1     -29.777 -13.861  16.617  0.00  0.00    +0.117 C 
BRANCH  15  16
ATOM     16  C   UNL     1     -30.961 -12.926  16.480  0.00  0.00    -0.028 A 
ATOM     17  C   UNL     1     -32.204 -13.266  17.044  0.00  0.00    +0.005 A 
ATOM     18  C   UNL     1     -33.291 -12.394  16.942  0.00  0.00    +0.003 A 
ATOM     19  C   UNL     1     -33.158 -11.172  16.268  0.00  0.00    -0.050 A 
ATOM     20  C   UNL     1     -34.314 -10.219  16.195  0.00  0.00    +0.044 C 
ATOM     21  C   UNL     1     -31.915 -10.816  15.725  0.00  0.00    +0.003 A 
ATOM     22  C   UNL     1     -30.825 -11.687  15.827  0.00  0.00    +0.005 A 
ENDBRANCH  15  16
BRANCH  15  23
ATOM     23  C   UNL     1     -29.885 -15.027  15.606  0.00  0.00    +0.145 C 
BRANCH  23  24
ATOM     24  C   UNL     1     -28.842 -14.922  14.535  0.00  0.00    +0.307 C 
ATOM     25  O   UNL     1     -29.187 -14.805  13.329  0.00  0.00    -0.251 OA
BRANCH  24  26
ATOM     26  O   UNL     1     -27.495 -14.998  14.871  0.00  0.00    -0.481 OA
ATOM     27  H   UNL     1     -26.801 -15.257  14.179  0.00  0.00    +0.295 HD
ENDBRANCH  24  26
ENDBRANCH  23  24
ENDBRANCH  15  23
ENDBRANCH   1  15
TORSDOF 8
ENDMDL
MODEL 6
REMARK VINA RESULT:    -4.547      3.276      5.169
REMARK INTER + INTRA:          -8.594
REMARK INTER:                  -5.802
REMARK INTRA:                  -2.792
REMARK UNBOUND:                -2.054
REMARK  Name = 
REMARK  10 active torsions:
REMARK  status: ('A' for Active; 'I' for Inactive)
REMARK    1  A    between atoms: C_1  and  C_2
REMARK    2  A    between atoms: C_2  and  C_4
REMARK    3  A    between atoms: C_7  and  S_10
REMARK    4  A    between atoms: S_10  and  N_13
REMARK    5  A    between atoms: N_13  and  C_14
REMARK    6  A    between atoms: C_14  and  C_15
REMARK    7  A    between atoms: C_14  and  C_19
REMARK    8  A    between atoms: C_15  and  C_16
REMARK    9  A    between atoms: C_16  and  O_18
REMARK   10  A    between atoms: C_22  and  C_23
REMARK                            x       y       z     vdW  Elec       q    Type
REMARK                         _______ _______ _______ _____ _____    ______ ____
ROOT
ATOM      1  N   UNL     1     -32.646  -9.676  19.264  0.00  0.00    -0.182 NA
ATOM      2  H   UNL     1     -33.279  -9.084  19.850  0.00  0.00    +0.149 HD
ENDROOT
BRANCH   1   3
ATOM      3  S   UNL     1     -33.433  -9.950  17.735  0.00  0.00    +0.059 S 
ATOM      4  O   UNL     1     -34.861 -10.357  17.970  0.00  0.00    -0.153 OA
ATOM      5  O   UNL     1     -33.429  -8.672  16.944  0.00  0.00    -0.153 OA
BRANCH   3   9
ATOM      6  C   UNL     1     -31.173 -13.165  15.378  0.00  0.00    +0.017 A 
ATOM      7  C   UNL     1     -31.744 -13.463  16.632  0.00  0.00    +0.013 A 
ATOM      8  C   UNL     1     -32.448 -12.488  17.342  0.00  0.00    +0.029 A 
ATOM      9  C   UNL     1     -32.595 -11.198  16.816  0.00  0.00    +0.105 A 
ATOM     10  C   UNL     1     -32.030 -10.892  15.574  0.00  0.00    +0.029 A 
ATOM     11  C   UNL     1     -31.326 -11.865  14.860  0.00  0.00    +0.013 A 
BRANCH   6  13
ATOM     12  C   UNL     1     -29.157 -14.808  15.139  0.00  0.00    +0.091 C 
ATOM     13  C   UNL     1     -30.416 -14.189  14.610  0.00  0.00    +0.160 C 
ATOM     14  O   UNL     1     -30.833 -14.557  13.478  0.00  0.00    -0.292 OA
ENDBRANCH   6  13
ENDBRANCH   3   9
ENDBRANCH   1   3
BRANCH   1  15
ATOM     15  C   UNL     1     -31.324  -9.040  19.099  0.00  0.00    +0.117 C 
BRANCH  15  16
ATOM     16  C   UNL     1     -30.247 -10.089  19.288  0.00  0.00    -0.028 A 
ATOM     17  C   UNL     1     -30.221 -10.879  20.452  0.00  0.00    +0.005 A 
ATOM     18  C   UNL     1     -29.245 -11.865  20.618  0.00  0.00    +0.003 A 
ATOM     19  C   UNL     1     -28.274 -12.073  19.629  0.00  0.00    -0.050 A 
ATOM     20  C   UNL     1     -27.252 -13.160  19.790  0.00  0.00    +0.044 C 
ATOM     21  C   UNL     1     -28.309 -11.306  18.456  0.00  0.00    +0.003 A 
ATOM     22  C   UNL     1     -29.286 -10.320  18.287  0.00  0.00    +0.005 A 
ENDBRANCH  15  16
BRANCH  15  23
ATOM     23  C   UNL     1     -31.125  -7.873  20.094  0.00  0.00    +0.145 C 
BRANCH  23  24
ATOM     24  C   UNL     1     -32.098  -6.762  19.837  0.00  0.00    +0.307 C 
ATOM     25  O   UNL     1     -32.278  -5.867  20.705  0.00  0.00    -0.251 OA
BRANCH  24  26
ATOM     26  O   UNL     1     -32.836  -6.747  18.657  0.00  0.00    -0.481 OA
ATOM     27  H   UNL     1     -33.503  -6.007  18.472  0.00  0.00    +0.295 HD
ENDBRANCH  24  26
ENDBRANCH  23  24
ENDBRANCH  15  23
ENDBRANCH   1  15
TORSDOF 8
ENDMDL
MODEL 7
REMARK VINA RESULT:    -4.515      3.274      5.199
REMARK INTER + INTRA:          -8.548
REMARK INTER:                  -6.754
REMARK INTRA:                  -1.793
REMARK UNBOUND:                -2.054
REMARK  Name = 
REMARK  10 active torsions:
REMARK  status: ('A' for Active; 'I' for Inactive)
REMARK    1  A    between atoms: C_1  and  C_2
REMARK    2  A    between atoms: C_2  and  C_4
REMARK    3  A    between atoms: C_7  and  S_10
REMARK    4  A    between atoms: S_10  and  N_13
REMARK    5  A    between atoms: N_13  and  C_14
REMARK    6  A    between atoms: C_14  and  C_15
REMARK    7  A    between atoms: C_14  and  C_19
REMARK    8  A    between atoms: C_15  and  C_16
REMARK    9  A    between atoms: C_16  and  O_18
REMARK   10  A    between atoms: C_22  and  C_23
REMARK                            x       y       z     vdW  Elec       q    Type
REMARK                         _______ _______ _______ _____ _____    ______ ____
ROOT
ATOM      1  N   UNL     1     -31.662 -13.090  19.196  0.00  0.00    -0.182 NA
ATOM      2  H   UNL     1     -32.473 -13.390  19.784  0.00  0.00    +0.149 HD
ENDROOT
BRANCH   1   3
ATOM      3  S   UNL     1     -32.284 -12.540  17.666  0.00  0.00    +0.059 S 
ATOM      4  O   UNL     1     -33.732 -12.928  17.543  0.00  0.00    -0.153 OA
ATOM      5  O   UNL     1     -32.188 -11.042  17.604  0.00  0.00    -0.153 OA
BRANCH   3   9
ATOM      6  C   UNL     1     -29.829 -14.267  14.204  0.00  0.00    +0.017 A 
ATOM      7  C   UNL     1     -29.662 -14.757  15.515  0.00  0.00    +0.013 A 
ATOM      8  C   UNL     1     -30.424 -14.242  16.567  0.00  0.00    +0.029 A 
ATOM      9  C   UNL     1     -31.363 -13.231  16.331  0.00  0.00    +0.105 A 
ATOM     10  C   UNL     1     -31.534 -12.737  15.034  0.00  0.00    +0.029 A 
ATOM     11  C   UNL     1     -30.776 -13.250  13.979  0.00  0.00    +0.013 A 
BRANCH   6  13
ATOM     12  C   UNL     1     -27.553 -15.062  13.198  0.00  0.00    +0.091 C 
ATOM     13  C   UNL     1     -29.024 -14.799  13.072  0.00  0.00    +0.160 C 
ATOM     14  O   UNL     1     -29.581 -15.041  11.966  0.00  0.00    -0.292 OA
ENDBRANCH   6  13
ENDBRANCH   3   9
ENDBRANCH   1   3
BRANCH   1  15
ATOM     15  C   UNL     1     -30.868 -12.047  19.875  0.00  0.00    +0.117 C 
BRANCH  15  16
ATOM     16  C   UNL     1     -29.455 -12.556  20.075  0.00  0.00    -0.028 A 
ATOM     17  C   UNL     1     -29.178 -13.511  21.070  0.00  0.00    +0.005 A 
ATOM     18  C   UNL     1     -27.881 -14.003  21.240  0.00  0.00    +0.003 A 
ATOM     19  C   UNL     1     -26.837 -13.543  20.425  0.00  0.00    -0.050 A 
ATOM     20  C   UNL     1     -25.454 -14.102  20.581  0.00  0.00    +0.044 C 
ATOM     21  C   UNL     1     -27.112 -12.610  19.415  0.00  0.00    +0.003 A 
ATOM     22  C   UNL     1     -28.409 -12.118  19.243  0.00  0.00    +0.005 A 
ENDBRANCH  15  16
BRANCH  15  23
ATOM     23  C   UNL     1     -31.496 -11.645  21.230  0.00  0.00    +0.145 C 
BRANCH  23  24
ATOM     24  C   UNL     1     -32.856 -11.042  21.045  0.00  0.00    +0.307 C 
ATOM     25  O   UNL     1     -33.760 -11.251  21.898  0.00  0.00    -0.251 OA
BRANCH  24  26
ATOM     26  O   UNL     1     -33.131 -10.287  19.909  0.00  0.00    -0.481 OA
ATOM     27  H   UNL     1     -33.922 -10.510  19.317  0.00  0.00    +0.295 HD
ENDBRANCH  24  26
ENDBRANCH  23  24
ENDBRANCH  15  23
ENDBRANCH   1  15
TORSDOF 8
ENDMDL
MODEL 8
REMARK VINA RESULT:    -4.398      2.412      6.558
REMARK INTER + INTRA:          -8.380
REMARK INTER:                  -6.923
REMARK INTRA:                  -1.457
REMARK UNBOUND:                -2.054
REMARK  Name = 
REMARK  10 active torsions:
REMARK  status: ('A' for Active; 'I' for Inactive)
REMARK    1  A    between atoms: C_1  and  C_2
REMARK    2  A    between atoms: C_2  and  C_4
REMARK    3  A    between atoms: C_7  and  S_10
REMARK    4  A    between atoms: S_10  and  N_13
REMARK    5  A    between atoms: N_13  and  C_14
REMARK    6  A    between atoms: C_14  and  C_15
REMARK    7  A    between atoms: C_14  and  C_19
REMARK    8  A    between atoms: C_15  and  C_16
REMARK    9  A    between atoms: C_16  and  O_18
REMARK   10  A    between atoms: C_22  and  C_23
REMARK                            x       y       z     vdW  Elec       q    Type
REMARK                         _______ _______ _______ _____ _____    ______ ____
ROOT
ATOM      1  N   UNL     1     -31.829 -10.606  17.782  0.00  0.00    -0.182 NA
ATOM      2  H   UNL     1     -31.621  -9.609  18.021  0.00  0.00    +0.149 HD
ENDROOT
BRANCH   1   3
ATOM      3  S   UNL     1     -31.764 -11.535  19.252  0.00  0.00    +0.059 S 
ATOM      4  O   UNL     1     -32.184 -10.673  20.411  0.00  0.00    -0.153 OA
ATOM      5  O   UNL     1     -32.723 -12.689  19.149  0.00  0.00    -0.153 OA
BRANCH   3   9
ATOM      6  C   UNL     1     -27.518 -13.082  20.011  0.00  0.00    +0.017 A 
ATOM      7  C   UNL     1     -28.584 -13.472  20.848  0.00  0.00    +0.013 A 
ATOM      8  C   UNL     1     -29.881 -13.014  20.606  0.00  0.00    +0.029 A 
ATOM      9  C   UNL     1     -30.140 -12.161  19.526  0.00  0.00    +0.105 A 
ATOM     10  C   UNL     1     -29.089 -11.767  18.692  0.00  0.00    +0.029 A 
ATOM     11  C   UNL     1     -27.790 -12.223  18.929  0.00  0.00    +0.013 A 
BRANCH   6  13
ATOM     12  C   UNL     1     -25.836 -14.729  21.142  0.00  0.00    +0.091 C 
ATOM     13  C   UNL     1     -26.130 -13.556  20.256  0.00  0.00    +0.160 C 
ATOM     14  O   UNL     1     -25.161 -12.963  19.709  0.00  0.00    -0.292 OA
ENDBRANCH   6  13
ENDBRANCH   3   9
ENDBRANCH   1   3
BRANCH   1  15
ATOM     15  C   UNL     1     -33.136 -10.730  17.107  0.00  0.00    +0.117 C 
BRANCH  15  16
ATOM     16  C   UNL     1     -32.940 -11.429  15.777  0.00  0.00    -0.028 A 
ATOM     17  C   UNL     1     -33.965 -11.425  14.815  0.00  0.00    +0.005 A 
ATOM     18  C   UNL     1     -33.778 -12.046  13.577  0.00  0.00    +0.003 A 
ATOM     19  C   UNL     1     -32.567 -12.689  13.283  0.00  0.00    -0.050 A 
ATOM     20  C   UNL     1     -32.353 -13.319  11.939  0.00  0.00    +0.044 C 
ATOM     21  C   UNL     1     -31.532 -12.674  14.229  0.00  0.00    +0.003 A 
ATOM     22  C   UNL     1     -31.717 -12.053  15.468  0.00  0.00    +0.005 A 
ENDBRANCH  15  16
BRANCH  15  23
ATOM     23  C   UNL     1     -33.804  -9.350  16.901  0.00  0.00    +0.145 C 
BRANCH  23  24
ATOM     24  C   UNL     1     -33.810  -8.550  18.168  0.00  0.00    +0.307 C 
ATOM     25  O   UNL     1     -32.737  -8.054  18.606  0.00  0.00    -0.251 OA
BRANCH  24  26
ATOM     26  O   UNL     1     -34.993  -8.394  18.884  0.00  0.00    -0.481 OA
ATOM     27  H   UNL     1     -35.246  -7.496  19.279  0.00  0.00    +0.295 HD
ENDBRANCH  24  26
ENDBRANCH  23  24
ENDBRANCH  15  23
ENDBRANCH   1  15
TORSDOF 8
ENDMDL
MODEL 9
REMARK VINA RESULT:    -4.280      2.458      5.340
REMARK INTER + INTRA:          -8.210
REMARK INTER:                  -5.547
REMARK INTRA:                  -2.663
REMARK UNBOUND:                -2.054
REMARK  Name = 
REMARK  10 active torsions:
REMARK  status: ('A' for Active; 'I' for Inactive)
REMARK    1  A    between atoms: C_1  and  C_2
REMARK    2  A    between atoms: C_2  and  C_4
REMARK    3  A    between atoms: C_7  and  S_10
REMARK    4  A    between atoms: S_10  and  N_13
REMARK    5  A    between atoms: N_13  and  C_14
REMARK    6  A    between atoms: C_14  and  C_15
REMARK    7  A    between atoms: C_14  and  C_19
REMARK    8  A    between atoms: C_15  and  C_16
REMARK    9  A    between atoms: C_16  and  O_18
REMARK   10  A    between atoms: C_22  and  C_23
REMARK                            x       y       z     vdW  Elec       q    Type
REMARK                         _______ _______ _______ _____ _____    ______ ____
ROOT
ATOM      1  N   UNL     1     -30.415  -9.636  20.527  0.00  0.00    -0.182 NA
ATOM      2  H   UNL     1     -30.078  -9.136  21.382  0.00  0.00    +0.149 HD
ENDROOT
BRANCH   1   3
ATOM      3  S   UNL     1     -30.372 -11.346  20.856  0.00  0.00    +0.059 S 
ATOM      4  O   UNL     1     -29.312 -11.634  21.883  0.00  0.00    -0.153 OA
ATOM      5  O   UNL     1     -31.700 -11.774  21.413  0.00  0.00    -0.153 OA
BRANCH   3   9
ATOM      6  C   UNL     1     -29.568 -13.651  16.978  0.00  0.00    +0.017 A 
ATOM      7  C   UNL     1     -28.607 -12.757  17.492  0.00  0.00    +0.013 A 
ATOM      8  C   UNL     1     -28.846 -12.067  18.684  0.00  0.00    +0.029 A 
ATOM      9  C   UNL     1     -30.044 -12.257  19.383  0.00  0.00    +0.105 A 
ATOM     10  C   UNL     1     -31.004 -13.141  18.880  0.00  0.00    +0.029 A 
ATOM     11  C   UNL     1     -30.769 -13.833  17.689  0.00  0.00    +0.013 A 
BRANCH   6  13
ATOM     12  C   UNL     1     -30.444 -14.681  14.743  0.00  0.00    +0.091 C 
ATOM     13  C   UNL     1     -29.334 -14.391  15.709  0.00  0.00    +0.160 C 
ATOM     14  O   UNL     1     -28.173 -14.792  15.423  0.00  0.00    -0.292 OA
ENDBRANCH   6  13
ENDBRANCH   3   9
ENDBRANCH   1   3
BRANCH   1  15
ATOM     15  C   UNL     1     -31.766  -9.183  20.143  0.00  0.00    +0.117 C 
BRANCH  15  16
ATOM     16  C   UNL     1     -32.031  -9.586  18.706  0.00  0.00    -0.028 A 
ATOM     17  C   UNL     1     -31.058  -9.360  17.715  0.00  0.00    +0.005 A 
ATOM     18  C   UNL     1     -31.288  -9.755  16.394  0.00  0.00    +0.003 A 
ATOM     19  C   UNL     1     -32.494 -10.374  16.040  0.00  0.00    -0.050 A 
ATOM     20  C   UNL     1     -32.722 -10.834  14.630  0.00  0.00    +0.044 C 
ATOM     21  C   UNL     1     -33.456 -10.625  17.028  0.00  0.00    +0.003 A 
ATOM     22  C   UNL     1     -33.229 -10.232  18.350  0.00  0.00    +0.005 A 
ENDBRANCH  15  16
BRANCH  15  23
ATOM     23  C   UNL     1     -31.924  -7.653  20.314  0.00  0.00    +0.145 C 
BRANCH  23  24
ATOM     24  C   UNL     1     -30.680  -7.034  20.876  0.00  0.00    +0.307 C 
ATOM     25  O   UNL     1     -30.102  -6.104  20.253  0.00  0.00    -0.251 OA
BRANCH  24  26
ATOM     26  O   UNL     1     -30.139  -7.519  22.062  0.00  0.00    -0.481 OA
ATOM     27  H   UNL     1     -30.254  -8.491  22.327  0.00  0.00    +0.295 HD
ENDBRANCH  24  26
ENDBRANCH  23  24
ENDBRANCH  15  23
ENDBRANCH   1  15
TORSDOF 8
ENDMDL
