MODEL 1
REMARK VINA RESULT:    -4.488      0.000      0.000
REMARK INTER + INTRA:          -7.479
REMARK INTER:                  -6.324
REMARK INTRA:                  -1.155
REMARK UNBOUND:                -1.155
REMARK  Name = 
REMARK  7 active torsions:
REMARK  status: ('A' for Active; 'I' for Inactive)
REMARK    1  A    between atoms: C_2  and  C_3
REMARK    2  A    between atoms: C_3  and  O_4
REMARK    3  A    between atoms: O_4  and  C_5
REMARK    4  A    between atoms: N_12  and  C_13
REMARK    5  A    between atoms: C_16  and  S_19
REMARK    6  A    between atoms: S_19  and  N_22
REMARK    7  A    between atoms: N_22  and  C_23
REMARK                            x       y       z     vdW  Elec       q    Type
REMARK                         _______ _______ _______ _____ _____    ______ ____
ROOT
ATOM      1  C   UNL     1     -30.573  -9.473  20.885  0.00  0.00    +0.034 A 
ATOM      2  C   UNL     1     -30.200  -9.551  19.531  0.00  0.00    +0.025 A 
ATOM      3  C   UNL     1     -29.530 -10.678  19.048  0.00  0.00    +0.030 A 
ATOM      4  C   UNL     1     -29.233 -11.744  19.906  0.00  0.00    +0.109 A 
ATOM      5  C   UNL     1     -29.630 -11.684  21.248  0.00  0.00    +0.030 A 
ATOM      6  C   UNL     1     -30.302 -10.559  21.732  0.00  0.00    +0.025 A 
ENDROOT
BRANCH   1   9
ATOM      7  O   UNL     1     -29.815  -6.689  20.595  0.00  0.00    -0.272 OA
ATOM      8  C   UNL     1     -30.921  -6.969  21.133  0.00  0.00    +0.255 C 
ATOM      9  N   UNL     1     -31.278  -8.333  21.406  0.00  0.00    -0.283 N 
ATOM     10  H   UNL     1     -32.042  -8.503  22.100  0.00  0.00    +0.155 HD
BRANCH   8  11
ATOM     11  C   UNL     1     -31.818  -5.861  21.580  0.00  0.00    +0.325 C 
BRANCH  11  12
ATOM     12  O   UNL     1     -33.172  -6.232  21.335  0.00  0.00    -0.480 OA
BRANCH  12  13
ATOM     13  C   UNL     1     -33.795  -6.175  20.080  0.00  0.00    +0.156 A 
ATOM     14  C   UNL     1     -33.978  -4.965  19.382  0.00  0.00    +0.048 A 
ATOM     15  C   UNL     1     -34.605  -4.962  18.132  0.00  0.00    +0.004 A 
ATOM     16  C   UNL     1     -35.055  -6.158  17.569  0.00  0.00    +0.003 A 
ATOM     17  C   UNL     1     -34.878  -7.362  18.256  0.00  0.00    +0.042 A 
ATOM     18  C   UNL     1     -34.251  -7.371  19.506  0.00  0.00    +0.165 A 
ATOM     19  F   UNL     1     -34.086  -8.546  20.164  0.00  0.00    -0.202 F 
ENDBRANCH  12  13
ENDBRANCH  11  12
ENDBRANCH   8  11
ENDBRANCH   1   9
BRANCH   4  20
ATOM     20  S   UNL     1     -28.367 -13.150  19.292  0.00  0.00    +0.072 S 
ATOM     21  O   UNL     1     -27.297 -12.735  18.321  0.00  0.00    -0.150 OA
ATOM     22  O   UNL     1     -27.726 -13.865  20.448  0.00  0.00    -0.150 OA
BRANCH  20  23
ATOM     23  N   UNL     1     -29.472 -14.224  18.495  0.00  0.00    -0.216 N 
ATOM     24  H   UNL     1     -29.751 -15.086  19.016  0.00  0.00    +0.174 HD
BRANCH  23  25
ATOM     25  C   UNL     1     -30.092 -13.944  17.226  0.00  0.00    +0.049 A 
ATOM     26  C   UNL     1     -31.369 -13.356  17.136  0.00  0.00    +0.024 A 
ATOM     27  C   UNL     1     -31.943 -13.105  15.886  0.00  0.00    +0.003 A 
ATOM     28  C   UNL     1     -31.252 -13.432  14.718  0.00  0.00    +0.020 A 
ATOM     29  C   UNL     1     -29.982 -14.008  14.795  0.00  0.00    +0.043 A 
ATOM     30 CL   UNL     1     -29.114 -14.417  13.327  0.00  0.00    -0.083 Cl
ATOM     31  C   UNL     1     -29.404 -14.262  16.044  0.00  0.00    +0.044 A 
ENDBRANCH  23  25
ENDBRANCH  20  23
ENDBRANCH   4  20
TORSDOF 7
ENDMDL
MODEL 2
REMARK VINA RESULT:    -4.419      2.141      3.226
REMARK INTER + INTRA:          -7.382
REMARK INTER:                  -6.237
REMARK INTRA:                  -1.145
REMARK UNBOUND:                -1.155
REMARK  Name = 
REMARK  7 active torsions:
REMARK  status: ('A' for Active; 'I' for Inactive)
REMARK    1  A    between atoms: C_2  and  C_3
REMARK    2  A    between atoms: C_3  and  O_4
REMARK    3  A    between atoms: O_4  and  C_5
REMARK    4  A    between atoms: N_12  and  C_13
REMARK    5  A    between atoms: C_16  and  S_19
REMARK    6  A    between atoms: S_19  and  N_22
REMARK    7  A    between atoms: N_22  and  C_23
REMARK                            x       y       z     vdW  Elec       q    Type
REMARK                         _______ _______ _______ _____ _____    ______ ____
ROOT
ATOM      1  C   UNL     1     -31.863  -9.464  17.772  0.00  0.00    +0.034 A 
ATOM      2  C   UNL     1     -30.989  -9.797  16.721  0.00  0.00    +0.025 A 
ATOM      3  C   UNL     1     -30.182 -10.934  16.809  0.00  0.00    +0.030 A 
ATOM      4  C   UNL     1     -30.243 -11.757  17.940  0.00  0.00    +0.109 A 
ATOM      5  C   UNL     1     -31.134 -11.447  18.975  0.00  0.00    +0.030 A 
ATOM      6  C   UNL     1     -31.943 -10.311  18.887  0.00  0.00    +0.025 A 
ENDROOT
BRANCH   1   9
ATOM      7  O   UNL     1     -34.750  -9.463  17.502  0.00  0.00    -0.272 OA
ATOM      8  C   UNL     1     -34.153  -8.368  17.686  0.00  0.00    +0.255 C 
ATOM      9  N   UNL     1     -32.718  -8.309  17.701  0.00  0.00    -0.283 N 
ATOM     10  H   UNL     1     -32.270  -7.374  17.561  0.00  0.00    +0.155 HD
BRANCH   8  11
ATOM     11  C   UNL     1     -34.949  -7.108  17.785  0.00  0.00    +0.325 C 
BRANCH  11  12
ATOM     12  O   UNL     1     -35.062  -6.736  19.156  0.00  0.00    -0.480 OA
BRANCH  12  13
ATOM     13  C   UNL     1     -33.974  -6.570  20.025  0.00  0.00    +0.156 A 
ATOM     14  C   UNL     1     -33.048  -5.517  19.883  0.00  0.00    +0.048 A 
ATOM     15  C   UNL     1     -31.980  -5.394  20.778  0.00  0.00    +0.004 A 
ATOM     16  C   UNL     1     -31.824  -6.316  21.816  0.00  0.00    +0.003 A 
ATOM     17  C   UNL     1     -32.738  -7.363  21.962  0.00  0.00    +0.042 A 
ATOM     18  C   UNL     1     -33.808  -7.490  21.070  0.00  0.00    +0.165 A 
ATOM     19  F   UNL     1     -34.688  -8.511  21.222  0.00  0.00    -0.202 F 
ENDBRANCH  12  13
ENDBRANCH  11  12
ENDBRANCH   8  11
ENDBRANCH   1   9
BRANCH   4  20
ATOM     20  S   UNL     1     -29.203 -13.175  18.051  0.00  0.00    +0.072 S 
ATOM     21  O   UNL     1     -27.797 -12.840  17.637  0.00  0.00    -0.150 OA
ATOM     22  O   UNL     1     -29.192 -13.654  19.475  0.00  0.00    -0.150 OA
BRANCH  20  23
ATOM     23  N   UNL     1     -29.811 -14.437  17.027  0.00  0.00    -0.216 N 
ATOM     24  H   UNL     1     -30.301 -15.231  17.496  0.00  0.00    +0.174 HD
BRANCH  23  25
ATOM     25  C   UNL     1     -29.771 -14.393  15.588  0.00  0.00    +0.049 A 
ATOM     26  C   UNL     1     -28.633 -14.796  14.863  0.00  0.00    +0.024 A 
ATOM     27  C   UNL     1     -28.627 -14.733  13.466  0.00  0.00    +0.003 A 
ATOM     28  C   UNL     1     -29.752 -14.275  12.779  0.00  0.00    +0.020 A 
ATOM     29  C   UNL     1     -30.890 -13.880  13.488  0.00  0.00    +0.043 A 
ATOM     30 CL   UNL     1     -32.305 -13.305  12.625  0.00  0.00    -0.083 Cl
ATOM     31  C   UNL     1     -30.899 -13.940  14.886  0.00  0.00    +0.044 A 
ENDBRANCH  23  25
ENDBRANCH  20  23
ENDBRANCH   4  20
TORSDOF 7
ENDMDL
MODEL 3
REMARK VINA RESULT:    -4.408      4.066      7.977
REMARK INTER + INTRA:          -7.367
REMARK INTER:                  -6.117
REMARK INTRA:                  -1.250
REMARK UNBOUND:                -1.155
REMARK  Name = 
REMARK  7 active torsions:
REMARK  status: ('A' for Active; 'I' for Inactive)
REMARK    1  A    between atoms: C_2  and  C_3
REMARK    2  A    between atoms: C_3  and  O_4
REMARK    3  A    between atoms: O_4  and  C_5
REMARK    4  A    between atoms: N_12  and  C_13
REMARK    5  A    between atoms: C_16  and  S_19
REMARK    6  A    between atoms: S_19  and  N_22
REMARK    7  A    between atoms: N_22  and  C_23
REMARK                            x       y       z     vdW  Elec       q    Type
REMARK                         _______ _______ _______ _____ _____    ______ ____
ROOT
ATOM      1  C   UNL     1     -33.416 -11.663  16.334  0.00  0.00    +0.034 A 
ATOM      2  C   UNL     1     -33.739 -10.333  16.657  0.00  0.00    +0.025 A 
ATOM      3  C   UNL     1     -33.672  -9.892  17.981  0.00  0.00    +0.030 A 
ATOM      4  C   UNL     1     -33.273 -10.769  18.997  0.00  0.00    +0.109 A 
ATOM      5  C   UNL     1     -32.921 -12.086  18.676  0.00  0.00    +0.030 A 
ATOM      6  C   UNL     1     -32.985 -12.527  17.352  0.00  0.00    +0.025 A 
ENDROOT
BRANCH   1   9
ATOM      7  O   UNL     1     -31.526 -11.048  14.223  0.00  0.00    -0.272 OA
ATOM      8  C   UNL     1     -32.432 -11.897  14.004  0.00  0.00    +0.255 C 
ATOM      9  N   UNL     1     -33.460 -12.140  14.978  0.00  0.00    -0.283 N 
ATOM     10  H   UNL     1     -34.333 -12.614  14.651  0.00  0.00    +0.155 HD
BRANCH   8  11
ATOM     11  C   UNL     1     -32.490 -12.579  12.676  0.00  0.00    +0.325 C 
BRANCH  11  12
ATOM     12  O   UNL     1     -32.004 -13.911  12.816  0.00  0.00    -0.480 OA
BRANCH  12  13
ATOM     13  C   UNL     1     -30.697 -14.242  13.201  0.00  0.00    +0.156 A 
ATOM     14  C   UNL     1     -29.609 -14.188  12.307  0.00  0.00    +0.048 A 
ATOM     15  C   UNL     1     -28.323 -14.527  12.741  0.00  0.00    +0.004 A 
ATOM     16  C   UNL     1     -28.111 -14.922  14.064  0.00  0.00    +0.003 A 
ATOM     17  C   UNL     1     -29.184 -14.979  14.957  0.00  0.00    +0.042 A 
ATOM     18  C   UNL     1     -30.472 -14.641  14.527  0.00  0.00    +0.165 A 
ATOM     19  F   UNL     1     -31.507 -14.700  15.402  0.00  0.00    -0.202 F 
ENDBRANCH  12  13
ENDBRANCH  11  12
ENDBRANCH   8  11
ENDBRANCH   1   9
BRANCH   4  20
ATOM     20  S   UNL     1     -33.215 -10.210  20.667  0.00  0.00    +0.072 S 
ATOM     21  O   UNL     1     -34.021  -8.952  20.837  0.00  0.00    -0.150 OA
ATOM     22  O   UNL     1     -33.786 -11.280  21.554  0.00  0.00    -0.150 OA
BRANCH  20  23
ATOM     23  N   UNL     1     -31.572  -9.898  21.130  0.00  0.00    -0.216 N 
ATOM     24  H   UNL     1     -31.422  -9.225  21.914  0.00  0.00    +0.174 HD
BRANCH  23  25
ATOM     25  C   UNL     1     -30.436 -10.584  20.572  0.00  0.00    +0.049 A 
ATOM     26  C   UNL     1     -29.769 -10.110  19.425  0.00  0.00    +0.024 A 
ATOM     27  C   UNL     1     -28.674 -10.808  18.907  0.00  0.00    +0.003 A 
ATOM     28  C   UNL     1     -28.229 -11.977  19.527  0.00  0.00    +0.020 A 
ATOM     29  C   UNL     1     -28.878 -12.452  20.669  0.00  0.00    +0.043 A 
ATOM     30 CL   UNL     1     -28.318 -13.921  21.448  0.00  0.00    -0.083 Cl
ATOM     31  C   UNL     1     -29.975 -11.758  21.190  0.00  0.00    +0.044 A 
ENDBRANCH  23  25
ENDBRANCH  20  23
ENDBRANCH   4  20
TORSDOF 7
ENDMDL
MODEL 4
REMARK VINA RESULT:    -4.369      3.992      7.937
REMARK INTER + INTRA:          -7.312
REMARK INTER:                  -6.978
REMARK INTRA:                  -0.333
REMARK UNBOUND:                -1.155
REMARK  Name = 
REMARK  7 active torsions:
REMARK  status: ('A' for Active; 'I' for Inactive)
REMARK    1  A    between atoms: C_2  and  C_3
REMARK    2  A    between atoms: C_3  and  O_4
REMARK    3  A    between atoms: O_4  and  C_5
REMARK    4  A    between atoms: N_12  and  C_13
REMARK    5  A    between atoms: C_16  and  S_19
REMARK    6  A    between atoms: S_19  and  N_22
REMARK    7  A    between atoms: N_22  and  C_23
REMARK                            x       y       z     vdW  Elec       q    Type
REMARK                         _______ _______ _______ _____ _____    ______ ____
ROOT
ATOM      1  C   UNL     1     -31.384 -10.329  16.052  0.00  0.00    +0.034 A 
ATOM      2  C   UNL     1     -32.521  -9.677  16.563  0.00  0.00    +0.025 A 
ATOM      3  C   UNL     1     -32.476  -9.060  17.816  0.00  0.00    +0.030 A 
ATOM      4  C   UNL     1     -31.296  -9.077  18.569  0.00  0.00    +0.109 A 
ATOM      5  C   UNL     1     -30.153  -9.699  18.051  0.00  0.00    +0.030 A 
ATOM      6  C   UNL     1     -30.196 -10.314  16.797  0.00  0.00    +0.025 A 
ENDROOT
BRANCH   1   9
ATOM      7  O   UNL     1     -33.061 -12.544  15.220  0.00  0.00    -0.272 OA
ATOM      8  C   UNL     1     -32.331 -11.975  14.364  0.00  0.00    +0.255 C 
ATOM      9  N   UNL     1     -31.396 -10.958  14.758  0.00  0.00    -0.283 N 
ATOM     10  H   UNL     1     -30.623 -10.727  14.093  0.00  0.00    +0.155 HD
BRANCH   8  11
ATOM     11  C   UNL     1     -32.369 -12.439  12.945  0.00  0.00    +0.325 C 
BRANCH  11  12
ATOM     12  O   UNL     1     -31.898 -13.782  12.882  0.00  0.00    -0.480 OA
BRANCH  12  13
ATOM     13  C   UNL     1     -30.581 -14.175  13.162  0.00  0.00    +0.156 A 
ATOM     14  C   UNL     1     -29.550 -14.097  12.204  0.00  0.00    +0.048 A 
ATOM     15  C   UNL     1     -28.251 -14.500  12.533  0.00  0.00    +0.004 A 
ATOM     16  C   UNL     1     -27.969 -14.982  13.813  0.00  0.00    +0.003 A 
ATOM     17  C   UNL     1     -28.986 -15.062  14.768  0.00  0.00    +0.042 A 
ATOM     18  C   UNL     1     -30.286 -14.661  14.444  0.00  0.00    +0.165 A 
ATOM     19  F   UNL     1     -31.266 -14.744  15.379  0.00  0.00    -0.202 F 
ENDBRANCH  12  13
ENDBRANCH  11  12
ENDBRANCH   8  11
ENDBRANCH   1   9
BRANCH   4  20
ATOM     20  S   UNL     1     -31.258  -8.318  20.158  0.00  0.00    +0.072 S 
ATOM     21  O   UNL     1     -30.148  -7.307  20.240  0.00  0.00    -0.150 OA
ATOM     22  O   UNL     1     -32.570  -7.622  20.392  0.00  0.00    -0.150 OA
BRANCH  20  23
ATOM     23  N   UNL     1     -31.022  -9.521  21.385  0.00  0.00    -0.216 N 
ATOM     24  H   UNL     1     -31.269  -9.253  22.364  0.00  0.00    +0.174 HD
BRANCH  23  25
ATOM     25  C   UNL     1     -30.614 -10.876  21.114  0.00  0.00    +0.049 A 
ATOM     26  C   UNL     1     -31.446 -11.780  20.424  0.00  0.00    +0.024 A 
ATOM     27  C   UNL     1     -31.020 -13.090  20.186  0.00  0.00    +0.003 A 
ATOM     28  C   UNL     1     -29.763 -13.510  20.626  0.00  0.00    +0.020 A 
ATOM     29  C   UNL     1     -28.927 -12.620  21.305  0.00  0.00    +0.043 A 
ATOM     30 CL   UNL     1     -27.348 -13.148  21.856  0.00  0.00    -0.083 Cl
ATOM     31  C   UNL     1     -29.350 -11.309  21.546  0.00  0.00    +0.044 A 
ENDBRANCH  23  25
ENDBRANCH  20  23
ENDBRANCH   4  20
TORSDOF 7
ENDMDL
MODEL 5
REMARK VINA RESULT:    -4.317      4.166      6.775
REMARK INTER + INTRA:          -7.239
REMARK INTER:                  -6.772
REMARK INTRA:                  -0.467
REMARK UNBOUND:                -1.155
REMARK  Name = 
REMARK  7 active torsions:
REMARK  status: ('A' for Active; 'I' for Inactive)
REMARK    1  A    between atoms: C_2  and  C_3
REMARK    2  A    between atoms: C_3  and  O_4
REMARK    3  A    between atoms: O_4  and  C_5
REMARK    4  A    between atoms: N_12  and  C_13
REMARK    5  A    between atoms: C_16  and  S_19
REMARK    6  A    between atoms: S_19  and  N_22
REMARK    7  A    between atoms: N_22  and  C_23
REMARK                            x       y       z     vdW  Elec       q    Type
REMARK                         _______ _______ _______ _____ _____    ______ ____
ROOT
ATOM      1  C   UNL     1     -29.592 -13.627  16.599  0.00  0.00    +0.034 A 
ATOM      2  C   UNL     1     -30.341 -12.459  16.368  0.00  0.00    +0.025 A 
ATOM      3  C   UNL     1     -31.097 -12.325  15.200  0.00  0.00    +0.030 A 
ATOM      4  C   UNL     1     -31.124 -13.358  14.255  0.00  0.00    +0.109 A 
ATOM      5  C   UNL     1     -30.405 -14.535  14.496  0.00  0.00    +0.030 A 
ATOM      6  C   UNL     1     -29.650 -14.671  15.664  0.00  0.00    +0.025 A 
ENDROOT
BRANCH   1   9
ATOM      7  O   UNL     1     -28.013 -11.600  17.944  0.00  0.00    -0.272 OA
ATOM      8  C   UNL     1     -28.150 -12.730  18.488  0.00  0.00    +0.255 C 
ATOM      9  N   UNL     1     -28.819 -13.798  17.800  0.00  0.00    -0.283 N 
ATOM     10  H   UNL     1     -28.657 -14.772  18.144  0.00  0.00    +0.155 HD
BRANCH   8  11
ATOM     11  C   UNL     1     -27.518 -12.983  19.817  0.00  0.00    +0.325 C 
BRANCH  11  12
ATOM     12  O   UNL     1     -28.540 -13.105  20.803  0.00  0.00    -0.480 OA
BRANCH  12  13
ATOM     13  C   UNL     1     -29.638 -12.240  20.917  0.00  0.00    +0.156 A 
ATOM     14  C   UNL     1     -29.535 -10.961  21.499  0.00  0.00    +0.048 A 
ATOM     15  C   UNL     1     -30.661 -10.136  21.588  0.00  0.00    +0.004 A 
ATOM     16  C   UNL     1     -31.894 -10.576  21.101  0.00  0.00    +0.003 A 
ATOM     17  C   UNL     1     -32.004 -11.843  20.522  0.00  0.00    +0.042 A 
ATOM     18  C   UNL     1     -30.881 -12.672  20.431  0.00  0.00    +0.165 A 
ATOM     19  F   UNL     1     -31.000 -13.901  19.868  0.00  0.00    -0.202 F 
ENDBRANCH  12  13
ENDBRANCH  11  12
ENDBRANCH   8  11
ENDBRANCH   1   9
BRANCH   4  20
ATOM     20  S   UNL     1     -32.061 -13.170  12.776  0.00  0.00    +0.072 S 
ATOM     21  O   UNL     1     -31.527 -12.035  11.946  0.00  0.00    -0.150 OA
ATOM     22  O   UNL     1     -31.968 -14.442  11.981  0.00  0.00    -0.150 OA
BRANCH  20  23
ATOM     23  N   UNL     1     -33.723 -12.857  13.163  0.00  0.00    -0.216 N 
ATOM     24  H   UNL     1     -34.406 -13.623  12.970  0.00  0.00    +0.174 HD
BRANCH  23  25
ATOM     25  C   UNL     1     -34.184 -11.662  13.822  0.00  0.00    +0.049 A 
ATOM     26  C   UNL     1     -34.581 -10.520  13.099  0.00  0.00    +0.024 A 
ATOM     27  C   UNL     1     -35.015  -9.374  13.772  0.00  0.00    +0.003 A 
ATOM     28  C   UNL     1     -35.063  -9.355  15.167  0.00  0.00    +0.020 A 
ATOM     29  C   UNL     1     -34.678 -10.485  15.894  0.00  0.00    +0.043 A 
ATOM     30 CL   UNL     1     -34.740 -10.461  17.647  0.00  0.00    -0.083 Cl
ATOM     31  C   UNL     1     -34.242 -11.633  15.224  0.00  0.00    +0.044 A 
ENDBRANCH  23  25
ENDBRANCH  20  23
ENDBRANCH   4  20
TORSDOF 7
ENDMDL
MODEL 6
REMARK VINA RESULT:    -4.220      3.637      5.425
REMARK INTER + INTRA:          -7.101
REMARK INTER:                  -6.358
REMARK INTRA:                  -0.744
REMARK UNBOUND:                -1.155
REMARK  Name = 
REMARK  7 active torsions:
REMARK  status: ('A' for Active; 'I' for Inactive)
REMARK    1  A    between atoms: C_2  and  C_3
REMARK    2  A    between atoms: C_3  and  O_4
REMARK    3  A    between atoms: O_4  and  C_5
REMARK    4  A    between atoms: N_12  and  C_13
REMARK    5  A    between atoms: C_16  and  S_19
REMARK    6  A    between atoms: S_19  and  N_22
REMARK    7  A    between atoms: N_22  and  C_23
REMARK                            x       y       z     vdW  Elec       q    Type
REMARK                         _______ _______ _______ _____ _____    ______ ____
ROOT
ATOM      1  C   UNL     1     -33.087  -9.324  16.370  0.00  0.00    +0.034 A 
ATOM      2  C   UNL     1     -34.189  -9.581  15.535  0.00  0.00    +0.025 A 
ATOM      3  C   UNL     1     -34.075 -10.486  14.476  0.00  0.00    +0.030 A 
ATOM      4  C   UNL     1     -32.866 -11.152  14.244  0.00  0.00    +0.109 A 
ATOM      5  C   UNL     1     -31.775 -10.922  15.092  0.00  0.00    +0.030 A 
ATOM      6  C   UNL     1     -31.888 -10.019  16.152  0.00  0.00    +0.025 A 
ENDROOT
BRANCH   1   9
ATOM      7  O   UNL     1     -34.561  -9.736  18.834  0.00  0.00    -0.272 OA
ATOM      8  C   UNL     1     -33.828  -8.716  18.723  0.00  0.00    +0.255 C 
ATOM      9  N   UNL     1     -33.180  -8.411  17.478  0.00  0.00    -0.283 N 
ATOM     10  H   UNL     1     -32.835  -7.433  17.339  0.00  0.00    +0.155 HD
BRANCH   8  11
ATOM     11  C   UNL     1     -33.720  -7.765  19.870  0.00  0.00    +0.325 C 
BRANCH  11  12
ATOM     12  O   UNL     1     -32.794  -8.285  20.819  0.00  0.00    -0.480 OA
BRANCH  12  13
ATOM     13  C   UNL     1     -31.881  -9.316  20.554  0.00  0.00    +0.156 A 
ATOM     14  C   UNL     1     -30.671  -9.095  19.865  0.00  0.00    +0.048 A 
ATOM     15  C   UNL     1     -29.794 -10.158  19.627  0.00  0.00    +0.004 A 
ATOM     16  C   UNL     1     -30.111 -11.444  20.070  0.00  0.00    +0.003 A 
ATOM     17  C   UNL     1     -31.309 -11.670  20.753  0.00  0.00    +0.042 A 
ATOM     18  C   UNL     1     -32.191 -10.611  20.994  0.00  0.00    +0.165 A 
ATOM     19  F   UNL     1     -33.351 -10.843  21.658  0.00  0.00    -0.202 F 
ENDBRANCH  12  13
ENDBRANCH  11  12
ENDBRANCH   8  11
ENDBRANCH   1   9
BRANCH   4  20
ATOM     20  S   UNL     1     -32.727 -12.272  12.892  0.00  0.00    +0.072 S 
ATOM     21  O   UNL     1     -34.038 -12.399  12.167  0.00  0.00    -0.150 OA
ATOM     22  O   UNL     1     -31.690 -11.750  11.938  0.00  0.00    -0.150 OA
BRANCH  20  23
ATOM     23  N   UNL     1     -32.241 -13.835  13.466  0.00  0.00    -0.216 N 
ATOM     24  H   UNL     1     -32.965 -14.589  13.454  0.00  0.00    +0.174 HD
BRANCH  23  25
ATOM     25  C   UNL     1     -30.894 -14.168  13.849  0.00  0.00    +0.049 A 
ATOM     26  C   UNL     1     -30.528 -14.355  15.197  0.00  0.00    +0.024 A 
ATOM     27  C   UNL     1     -29.208 -14.669  15.533  0.00  0.00    +0.003 A 
ATOM     28  C   UNL     1     -28.242 -14.805  14.533  0.00  0.00    +0.020 A 
ATOM     29  C   UNL     1     -28.596 -14.629  13.193  0.00  0.00    +0.043 A 
ATOM     30 CL   UNL     1     -27.383 -14.802  11.938  0.00  0.00    -0.083 Cl
ATOM     31  C   UNL     1     -29.915 -14.314  12.853  0.00  0.00    +0.044 A 
ENDBRANCH  23  25
ENDBRANCH  20  23
ENDBRANCH   4  20
TORSDOF 7
ENDMDL
MODEL 7
REMARK VINA RESULT:    -4.013      4.003      6.324
REMARK INTER + INTRA:          -6.810
REMARK INTER:                  -6.915
REMARK INTRA:                   0.105
REMARK UNBOUND:                -1.155
REMARK  Name = 
REMARK  7 active torsions:
REMARK  status: ('A' for Active; 'I' for Inactive)
REMARK    1  A    between atoms: C_2  and  C_3
REMARK    2  A    between atoms: C_3  and  O_4
REMARK    3  A    between atoms: O_4  and  C_5
REMARK    4  A    between atoms: N_12  and  C_13
REMARK    5  A    between atoms: C_16  and  S_19
REMARK    6  A    between atoms: S_19  and  N_22
REMARK    7  A    between atoms: N_22  and  C_23
REMARK                            x       y       z     vdW  Elec       q    Type
REMARK                         _______ _______ _______ _____ _____    ______ ____
ROOT
ATOM      1  C   UNL     1     -32.977 -10.608  17.272  0.00  0.00    +0.034 A 
ATOM      2  C   UNL     1     -32.167 -10.158  16.213  0.00  0.00    +0.025 A 
ATOM      3  C   UNL     1     -32.400 -10.602  14.909  0.00  0.00    +0.030 A 
ATOM      4  C   UNL     1     -33.449 -11.490  14.643  0.00  0.00    +0.109 A 
ATOM      5  C   UNL     1     -34.277 -11.917  15.689  0.00  0.00    +0.030 A 
ATOM      6  C   UNL     1     -34.046 -11.472  16.993  0.00  0.00    +0.025 A 
ENDROOT
BRANCH   1   9
ATOM      7  O   UNL     1     -32.638 -12.272  19.623  0.00  0.00    -0.272 OA
ATOM      8  C   UNL     1     -32.492 -11.024  19.730  0.00  0.00    +0.255 C 
ATOM      9  N   UNL     1     -32.771 -10.155  18.622  0.00  0.00    -0.283 N 
ATOM     10  H   UNL     1     -32.922  -9.141  18.828  0.00  0.00    +0.155 HD
BRANCH   8  11
ATOM     11  C   UNL     1     -32.124 -10.443  21.056  0.00  0.00    +0.325 C 
BRANCH  11  12
ATOM     12  O   UNL     1     -30.713 -10.253  21.105  0.00  0.00    -0.480 OA
BRANCH  12  13
ATOM     13  C   UNL     1     -29.781 -11.052  20.427  0.00  0.00    +0.156 A 
ATOM     14  C   UNL     1     -29.315 -12.276  20.948  0.00  0.00    +0.048 A 
ATOM     15  C   UNL     1     -28.386 -13.037  20.231  0.00  0.00    +0.004 A 
ATOM     16  C   UNL     1     -27.914 -12.588  18.995  0.00  0.00    +0.003 A 
ATOM     17  C   UNL     1     -28.371 -11.375  18.473  0.00  0.00    +0.042 A 
ATOM     18  C   UNL     1     -29.300 -10.610  19.186  0.00  0.00    +0.165 A 
ATOM     19  F   UNL     1     -29.736  -9.434  18.669  0.00  0.00    -0.202 F 
ENDBRANCH  12  13
ENDBRANCH  11  12
ENDBRANCH   8  11
ENDBRANCH   1   9
BRANCH   4  20
ATOM     20  S   UNL     1     -33.719 -12.062  12.999  0.00  0.00    +0.072 S 
ATOM     21  O   UNL     1     -34.780 -13.127  12.971  0.00  0.00    -0.150 OA
ATOM     22  O   UNL     1     -34.168 -10.903  12.153  0.00  0.00    -0.150 OA
BRANCH  20  23
ATOM     23  N   UNL     1     -32.247 -12.709  12.348  0.00  0.00    -0.216 N 
ATOM     24  H   UNL     1     -31.998 -12.429  11.372  0.00  0.00    +0.174 HD
BRANCH  23  25
ATOM     25  C   UNL     1     -31.317 -13.508  13.103  0.00  0.00    +0.049 A 
ATOM     26  C   UNL     1     -30.278 -14.228  12.481  0.00  0.00    +0.024 A 
ATOM     27  C   UNL     1     -29.399 -15.001  13.245  0.00  0.00    +0.003 A 
ATOM     28  C   UNL     1     -29.541 -15.060  14.633  0.00  0.00    +0.020 A 
ATOM     29  C   UNL     1     -30.563 -14.344  15.261  0.00  0.00    +0.043 A 
ATOM     30 CL   UNL     1     -30.741 -14.418  17.005  0.00  0.00    -0.083 Cl
ATOM     31  C   UNL     1     -31.446 -13.571  14.500  0.00  0.00    +0.044 A 
ENDBRANCH  23  25
ENDBRANCH  20  23
ENDBRANCH   4  20
TORSDOF 7
ENDMDL
MODEL 8
REMARK VINA RESULT:    -3.889      3.761      5.117
REMARK INTER + INTRA:          -6.636
REMARK INTER:                  -5.471
REMARK INTRA:                  -1.165
REMARK UNBOUND:                -1.155
REMARK  Name = 
REMARK  7 active torsions:
REMARK  status: ('A' for Active; 'I' for Inactive)
REMARK    1  A    between atoms: C_2  and  C_3
REMARK    2  A    between atoms: C_3  and  O_4
REMARK    3  A    between atoms: O_4  and  C_5
REMARK    4  A    between atoms: N_12  and  C_13
REMARK    5  A    between atoms: C_16  and  S_19
REMARK    6  A    between atoms: S_19  and  N_22
REMARK    7  A    between atoms: N_22  and  C_23
REMARK                            x       y       z     vdW  Elec       q    Type
REMARK                         _______ _______ _______ _____ _____    ______ ____
ROOT
ATOM      1  C   UNL     1     -33.315 -10.488  16.897  0.00  0.00    +0.034 A 
ATOM      2  C   UNL     1     -32.189 -10.213  16.101  0.00  0.00    +0.025 A 
ATOM      3  C   UNL     1     -32.047 -10.815  14.848  0.00  0.00    +0.030 A 
ATOM      4  C   UNL     1     -33.030 -11.690  14.370  0.00  0.00    +0.109 A 
ATOM      5  C   UNL     1     -34.168 -11.942  15.146  0.00  0.00    +0.030 A 
ATOM      6  C   UNL     1     -34.312 -11.339  16.398  0.00  0.00    +0.025 A 
ENDROOT
BRANCH   1   9
ATOM      7  O   UNL     1     -32.923 -11.733  19.487  0.00  0.00    -0.272 OA
ATOM      8  C   UNL     1     -33.173 -10.498  19.433  0.00  0.00    +0.255 C 
ATOM      9  N   UNL     1     -33.495  -9.869  18.183  0.00  0.00    -0.283 N 
ATOM     10  H   UNL     1     -33.974  -8.940  18.218  0.00  0.00    +0.155 HD
BRANCH   8  11
ATOM     11  C   UNL     1     -33.236  -9.710  20.700  0.00  0.00    +0.325 C 
BRANCH  11  12
ATOM     12  O   UNL     1     -33.523  -8.349  20.388  0.00  0.00    -0.480 OA
BRANCH  12  13
ATOM     13  C   UNL     1     -32.594  -7.302  20.478  0.00  0.00    +0.156 A 
ATOM     14  C   UNL     1     -31.456  -7.371  21.306  0.00  0.00    +0.048 A 
ATOM     15  C   UNL     1     -30.559  -6.300  21.360  0.00  0.00    +0.004 A 
ATOM     16  C   UNL     1     -30.786  -5.154  20.593  0.00  0.00    +0.003 A 
ATOM     17  C   UNL     1     -31.913  -5.078  19.771  0.00  0.00    +0.042 A 
ATOM     18  C   UNL     1     -32.814  -6.147  19.713  0.00  0.00    +0.165 A 
ATOM     19  F   UNL     1     -33.904  -6.062  18.911  0.00  0.00    -0.202 F 
ENDBRANCH  12  13
ENDBRANCH  11  12
ENDBRANCH   8  11
ENDBRANCH   1   9
BRANCH   4  20
ATOM     20  S   UNL     1     -32.830 -12.462  12.799  0.00  0.00    +0.072 S 
ATOM     21  O   UNL     1     -34.147 -12.564  12.083  0.00  0.00    -0.150 OA
ATOM     22  O   UNL     1     -31.887 -11.634  11.972  0.00  0.00    -0.150 OA
BRANCH  20  23
ATOM     23  N   UNL     1     -32.168 -14.053  13.002  0.00  0.00    -0.216 N 
ATOM     24  H   UNL     1     -32.745 -14.852  12.657  0.00  0.00    +0.174 HD
BRANCH  23  25
ATOM     25  C   UNL     1     -30.848 -14.315  13.513  0.00  0.00    +0.049 A 
ATOM     26  C   UNL     1     -30.596 -14.446  14.893  0.00  0.00    +0.024 A 
ATOM     27  C   UNL     1     -29.299 -14.693  15.353  0.00  0.00    +0.003 A 
ATOM     28  C   UNL     1     -28.244 -14.816  14.447  0.00  0.00    +0.020 A 
ATOM     29  C   UNL     1     -28.484 -14.695  13.076  0.00  0.00    +0.043 A 
ATOM     30 CL   UNL     1     -27.158 -14.852  11.938  0.00  0.00    -0.083 Cl
ATOM     31  C   UNL     1     -29.779 -14.447  12.611  0.00  0.00    +0.044 A 
ENDBRANCH  23  25
ENDBRANCH  20  23
ENDBRANCH   4  20
TORSDOF 7
ENDMDL
