MODEL 1
REMARK VINA RESULT:    -4.909      0.000      0.000
REMARK INTER + INTRA:          -6.589
REMARK INTER:                  -6.057
REMARK INTRA:                  -0.532
REMARK UNBOUND:                -0.532
REMARK  Name = 
REMARK  7 active torsions:
REMARK  status: ('A' for Active; 'I' for Inactive)
REMARK    1  A    between atoms: C_1  and  C_2
REMARK    2  A    between atoms: C_3  and  N_11
REMARK    3  A    between atoms: N_11  and  S_12
REMARK    4  A    between atoms: S_12  and  C_15
REMARK    5  A    between atoms: N_18  and  C_20
REMARK    6  A    between atoms: C_20  and  C_21
REMARK    7  A    between atoms: C_20  and  C_22
REMARK                            x       y       z     vdW  Elec       q    Type
REMARK                         _______ _______ _______ _____ _____    ______ ____
ROOT
ATOM      1  N   UNL     1     -31.161 -12.167  17.452  0.00  0.00    -0.214 N 
ATOM      2  H   UNL     1     -31.118 -13.049  18.007  0.00  0.00    +0.174 HD
ENDROOT
BRANCH   1   5
ATOM      3  C   UNL     1     -30.187 -13.637  15.098  0.00  0.00    +0.046 C 
ATOM      4  C   UNL     1     -31.457 -12.830  15.076  0.00  0.00    -0.016 A 
ATOM      5  C   UNL     1     -31.909 -12.124  16.224  0.00  0.00    +0.070 A 
ATOM      6  C   UNL     1     -33.106 -11.365  16.145  0.00  0.00    +0.137 A 
ATOM      7  N   UNL     1     -33.824 -11.304  14.987  0.00  0.00    -0.236 NA
ATOM      8  C   UNL     1     -33.386 -11.985  13.903  0.00  0.00    +0.138 A 
ATOM      9  N   UNL     1     -33.989 -12.023  12.705  0.00  0.00    -0.346 N 
ATOM     10  C   UNL     1     -33.214 -12.822  11.938  0.00  0.00    +0.085 A 
ATOM     11  C   UNL     1     -32.118 -13.288  12.658  0.00  0.00    +0.029 A 
ATOM     12  C   UNL     1     -32.246 -12.737  13.921  0.00  0.00    +0.023 A 
ATOM     13  H   UNL     1     -34.871 -11.541  12.424  0.00  0.00    +0.167 HD
ENDBRANCH   1   5
BRANCH   1  14
ATOM     14  S   UNL     1     -30.094 -10.882  17.923  0.00  0.00    +0.075 S 
ATOM     15  O   UNL     1     -29.735 -10.063  16.715  0.00  0.00    -0.150 OA
ATOM     16  O   UNL     1     -30.778 -10.005  18.933  0.00  0.00    -0.150 OA
BRANCH  14  17
ATOM     17  C   UNL     1     -28.648 -11.560  18.646  0.00  0.00    +0.146 A 
ATOM     18  C   UNL     1     -27.340 -11.308  18.290  0.00  0.00    +0.163 A 
ATOM     19  N   UNL     1     -26.534 -12.149  18.969  0.00  0.00    -0.177 NA
ATOM     20  N   UNL     1     -27.299 -12.903  19.748  0.00  0.00    -0.267 N 
ATOM     21  C   UNL     1     -28.594 -12.581  19.565  0.00  0.00    +0.137 A 
BRANCH  20  22
ATOM     22  C   UNL     1     -26.811 -14.030  20.545  0.00  0.00    +0.101 C 
ATOM     23  C   UNL     1     -27.417 -14.000  21.952  0.00  0.00    +0.032 C 
ATOM     24  C   UNL     1     -25.283 -14.000  20.603  0.00  0.00    +0.032 C 
ENDBRANCH  20  22
ENDBRANCH  14  17
ENDBRANCH   1  14
TORSDOF 4
ENDMDL
MODEL 2
REMARK VINA RESULT:    -4.753      1.983      6.638
REMARK INTER + INTRA:          -6.397
REMARK INTER:                  -5.787
REMARK INTRA:                  -0.610
REMARK UNBOUND:                -0.532
REMARK  Name = 
REMARK  7 active torsions:
REMARK  status: ('A' for Active; 'I' for Inactive)
REMARK    1  A    between atoms: C_1  and  C_2
REMARK    2  A    between atoms: C_3  and  N_11
REMARK    3  A    between atoms: N_11  and  S_12
REMARK    4  A    between atoms: S_12  and  C_15
REMARK    5  A    between atoms: N_18  and  C_20
REMARK    6  A    between atoms: C_20  and  C_21
REMARK    7  A    between atoms: C_20  and  C_22
REMARK                            x       y       z     vdW  Elec       q    Type
REMARK                         _______ _______ _______ _____ _____    ______ ____
ROOT
ATOM      1  N   UNL     1     -29.874  -9.865  18.867  0.00  0.00    -0.214 N 
ATOM      2  H   UNL     1     -29.817  -8.996  19.442  0.00  0.00    +0.174 HD
ENDROOT
BRANCH   1   5
ATOM      3  C   UNL     1     -30.397 -11.464  21.280  0.00  0.00    +0.046 C 
ATOM      4  C   UNL     1     -29.267 -11.776  20.335  0.00  0.00    -0.016 A 
ATOM      5  C   UNL     1     -29.030 -10.988  19.175  0.00  0.00    +0.070 A 
ATOM      6  C   UNL     1     -27.942 -11.316  18.325  0.00  0.00    +0.137 A 
ATOM      7  N   UNL     1     -27.125 -12.373  18.606  0.00  0.00    -0.236 NA
ATOM      8  C   UNL     1     -27.364 -13.117  19.710  0.00  0.00    +0.138 A 
ATOM      9  N   UNL     1     -26.653 -14.183  20.107  0.00  0.00    -0.346 N 
ATOM     10  C   UNL     1     -27.251 -14.613  21.241  0.00  0.00    +0.085 A 
ATOM     11  C   UNL     1     -28.344 -13.811  21.558  0.00  0.00    +0.029 A 
ATOM     12  C   UNL     1     -28.400 -12.853  20.561  0.00  0.00    +0.023 A 
ATOM     13  H   UNL     1     -25.817 -14.596  19.639  0.00  0.00    +0.167 HD
ENDBRANCH   1   5
BRANCH   1  14
ATOM     14  S   UNL     1     -30.801  -9.787  17.403  0.00  0.00    +0.075 S 
ATOM     15  O   UNL     1     -32.040  -8.970  17.641  0.00  0.00    -0.150 OA
ATOM     16  O   UNL     1     -29.980  -9.142  16.321  0.00  0.00    -0.150 OA
BRANCH  14  17
ATOM     17  C   UNL     1     -31.233 -11.409  16.898  0.00  0.00    +0.146 A 
ATOM     18  C   UNL     1     -31.999 -12.323  17.590  0.00  0.00    +0.163 A 
ATOM     19  N   UNL     1     -31.956 -13.506  16.944  0.00  0.00    -0.177 NA
ATOM     20  N   UNL     1     -31.201 -13.350  15.864  0.00  0.00    -0.267 N 
ATOM     21  C   UNL     1     -30.731 -12.089  15.813  0.00  0.00    +0.137 A 
BRANCH  20  22
ATOM     22  C   UNL     1     -30.802 -14.439  14.971  0.00  0.00    +0.101 C 
ATOM     23  C   UNL     1     -29.399 -14.943  15.327  0.00  0.00    +0.032 C 
ATOM     24  C   UNL     1     -30.863 -13.966  13.518  0.00  0.00    +0.032 C 
ENDBRANCH  20  22
ENDBRANCH  14  17
ENDBRANCH   1  14
TORSDOF 4
ENDMDL
MODEL 3
REMARK VINA RESULT:    -4.598      2.909      4.173
REMARK INTER + INTRA:          -6.206
REMARK INTER:                  -5.522
REMARK INTRA:                  -0.684
REMARK UNBOUND:                -0.532
REMARK  Name = 
REMARK  7 active torsions:
REMARK  status: ('A' for Active; 'I' for Inactive)
REMARK    1  A    between atoms: C_1  and  C_2
REMARK    2  A    between atoms: C_3  and  N_11
REMARK    3  A    between atoms: N_11  and  S_12
REMARK    4  A    between atoms: S_12  and  C_15
REMARK    5  A    between atoms: N_18  and  C_20
REMARK    6  A    between atoms: C_20  and  C_21
REMARK    7  A    between atoms: C_20  and  C_22
REMARK                            x       y       z     vdW  Elec       q    Type
REMARK                         _______ _______ _______ _____ _____    ______ ____
ROOT
ATOM      1  N   UNL     1     -29.854 -14.328  18.276  0.00  0.00    -0.214 N 
ATOM      2  H   UNL     1     -30.155 -15.232  18.701  0.00  0.00    +0.174 HD
ENDROOT
BRANCH   1   5
ATOM      3  C   UNL     1     -32.402 -13.110  17.454  0.00  0.00    +0.046 C 
ATOM      4  C   UNL     1     -31.327 -13.477  16.466  0.00  0.00    -0.016 A 
ATOM      5  C   UNL     1     -30.104 -14.067  16.885  0.00  0.00    +0.070 A 
ATOM      6  C   UNL     1     -29.129 -14.407  15.910  0.00  0.00    +0.137 A 
ATOM      7  N   UNL     1     -29.351 -14.176  14.584  0.00  0.00    -0.236 NA
ATOM      8  C   UNL     1     -30.518 -13.609  14.199  0.00  0.00    +0.138 A 
ATOM      9  N   UNL     1     -30.870 -13.319  12.938  0.00  0.00    -0.346 N 
ATOM     10  C   UNL     1     -32.099 -12.762  13.027  0.00  0.00    +0.085 A 
ATOM     11  C   UNL     1     -32.521 -12.704  14.353  0.00  0.00    +0.029 A 
ATOM     12  C   UNL     1     -31.489 -13.255  15.092  0.00  0.00    +0.023 A 
ATOM     13  H   UNL     1     -30.315 -13.484  12.071  0.00  0.00    +0.167 HD
ENDBRANCH   1   5
BRANCH   1  14
ATOM     14  S   UNL     1     -28.825 -13.308  19.232  0.00  0.00    +0.075 S 
ATOM     15  O   UNL     1     -28.933 -13.706  20.677  0.00  0.00    -0.150 OA
ATOM     16  O   UNL     1     -27.401 -13.464  18.778  0.00  0.00    -0.150 OA
BRANCH  14  17
ATOM     17  C   UNL     1     -29.307 -11.635  19.027  0.00  0.00    +0.146 A 
ATOM     18  C   UNL     1     -28.815 -10.731  18.109  0.00  0.00    +0.163 A 
ATOM     19  N   UNL     1     -29.318  -9.512  18.385  0.00  0.00    -0.177 NA
ATOM     20  N   UNL     1     -30.121  -9.633  19.435  0.00  0.00    -0.267 N 
ATOM     21  C   UNL     1     -30.125 -10.911  19.862  0.00  0.00    +0.137 A 
BRANCH  20  22
ATOM     22  C   UNL     1     -30.755  -8.509  20.125  0.00  0.00    +0.101 C 
ATOM     23  C   UNL     1     -30.953  -8.828  21.611  0.00  0.00    +0.032 C 
ATOM     24  C   UNL     1     -32.088  -8.175  19.453  0.00  0.00    +0.032 C 
ENDBRANCH  20  22
ENDBRANCH  14  17
ENDBRANCH   1  14
TORSDOF 4
ENDMDL
MODEL 4
REMARK VINA RESULT:    -4.515      2.571      3.278
REMARK INTER + INTRA:          -6.103
REMARK INTER:                  -5.479
REMARK INTRA:                  -0.624
REMARK UNBOUND:                -0.532
REMARK  Name = 
REMARK  7 active torsions:
REMARK  status: ('A' for Active; 'I' for Inactive)
REMARK    1  A    between atoms: C_1  and  C_2
REMARK    2  A    between atoms: C_3  and  N_11
REMARK    3  A    between atoms: N_11  and  S_12
REMARK    4  A    between atoms: S_12  and  C_15
REMARK    5  A    between atoms: N_18  and  C_20
REMARK    6  A    between atoms: C_20  and  C_21
REMARK    7  A    between atoms: C_20  and  C_22
REMARK                            x       y       z     vdW  Elec       q    Type
REMARK                         _______ _______ _______ _____ _____    ______ ____
ROOT
ATOM      1  N   UNL     1     -32.921  -9.009  16.277  0.00  0.00    -0.214 N 
ATOM      2  H   UNL     1     -32.460  -8.096  16.066  0.00  0.00    +0.174 HD
ENDROOT
BRANCH   1   5
ATOM      3  C   UNL     1     -31.269 -11.279  15.400  0.00  0.00    +0.046 C 
ATOM      4  C   UNL     1     -32.596 -10.954  14.766  0.00  0.00    -0.016 A 
ATOM      5  C   UNL     1     -33.377  -9.850  15.204  0.00  0.00    +0.070 A 
ATOM      6  C   UNL     1     -34.614  -9.578  14.562  0.00  0.00    +0.137 A 
ATOM      7  N   UNL     1     -35.059 -10.359  13.536  0.00  0.00    -0.236 NA
ATOM      8  C   UNL     1     -34.309 -11.410  13.132  0.00  0.00    +0.138 A 
ATOM      9  N   UNL     1     -34.621 -12.265  12.147  0.00  0.00    -0.346 N 
ATOM     10  C   UNL     1     -33.600 -13.150  12.100  0.00  0.00    +0.085 A 
ATOM     11  C   UNL     1     -32.640 -12.848  13.063  0.00  0.00    +0.029 A 
ATOM     12  C   UNL     1     -33.114 -11.725  13.716  0.00  0.00    +0.023 A 
ATOM     13  H   UNL     1     -35.472 -12.253  11.544  0.00  0.00    +0.167 HD
ENDBRANCH   1   5
BRANCH   1  14
ATOM     14  S   UNL     1     -33.343  -9.318  17.931  0.00  0.00    +0.075 S 
ATOM     15  O   UNL     1     -34.146  -8.165  18.464  0.00  0.00    -0.150 OA
ATOM     16  O   UNL     1     -34.162 -10.575  18.014  0.00  0.00    -0.150 OA
BRANCH  14  17
ATOM     17  C   UNL     1     -31.883  -9.529  18.877  0.00  0.00    +0.146 A 
ATOM     18  C   UNL     1     -31.075  -8.539  19.398  0.00  0.00    +0.163 A 
ATOM     19  N   UNL     1     -29.966  -9.107  19.912  0.00  0.00    -0.177 NA
ATOM     20  N   UNL     1     -30.068 -10.420  19.743  0.00  0.00    -0.267 N 
ATOM     21  C   UNL     1     -31.216 -10.710  19.102  0.00  0.00    +0.137 A 
BRANCH  20  22
ATOM     22  C   UNL     1     -29.004 -11.378  20.049  0.00  0.00    +0.101 C 
ATOM     23  C   UNL     1     -28.125 -11.621  18.818  0.00  0.00    +0.032 C 
ATOM     24  C   UNL     1     -29.615 -12.685  20.556  0.00  0.00    +0.032 C 
ENDBRANCH  20  22
ENDBRANCH  14  17
ENDBRANCH   1  14
TORSDOF 4
ENDMDL
MODEL 5
REMARK VINA RESULT:    -4.342      2.234      6.555
REMARK INTER + INTRA:          -5.890
REMARK INTER:                  -5.183
REMARK INTRA:                  -0.707
REMARK UNBOUND:                -0.532
REMARK  Name = 
REMARK  7 active torsions:
REMARK  status: ('A' for Active; 'I' for Inactive)
REMARK    1  A    between atoms: C_1  and  C_2
REMARK    2  A    between atoms: C_3  and  N_11
REMARK    3  A    between atoms: N_11  and  S_12
REMARK    4  A    between atoms: S_12  and  C_15
REMARK    5  A    between atoms: N_18  and  C_20
REMARK    6  A    between atoms: C_20  and  C_21
REMARK    7  A    between atoms: C_20  and  C_22
REMARK                            x       y       z     vdW  Elec       q    Type
REMARK                         _______ _______ _______ _____ _____    ______ ____
ROOT
ATOM      1  N   UNL     1     -29.901 -10.176  18.585  0.00  0.00    -0.214 N 
ATOM      2  H   UNL     1     -29.241  -9.383  18.425  0.00  0.00    +0.174 HD
ENDROOT
BRANCH   1   5
ATOM      3  C   UNL     1     -27.273 -11.444  18.216  0.00  0.00    +0.046 C 
ATOM      4  C   UNL     1     -28.248 -11.901  19.268  0.00  0.00    -0.016 A 
ATOM      5  C   UNL     1     -29.515 -11.275  19.428  0.00  0.00    +0.070 A 
ATOM      6  C   UNL     1     -30.404 -11.754  20.426  0.00  0.00    +0.137 A 
ATOM      7  N   UNL     1     -30.059 -12.802  21.229  0.00  0.00    -0.236 NA
ATOM      8  C   UNL     1     -28.849 -13.386  21.070  0.00  0.00    +0.138 A 
ATOM      9  N   UNL     1     -28.374 -14.414  21.787  0.00  0.00    -0.346 N 
ATOM     10  C   UNL     1     -27.137 -14.656  21.295  0.00  0.00    +0.085 A 
ATOM     11  C   UNL     1     -26.835 -13.773  20.262  0.00  0.00    +0.029 A 
ATOM     12  C   UNL     1     -27.950 -12.963  20.131  0.00  0.00    +0.023 A 
ATOM     13  H   UNL     1     -28.854 -14.921  22.562  0.00  0.00    +0.167 HD
ENDBRANCH   1   5
BRANCH   1  14
ATOM     14  S   UNL     1     -31.326 -10.232  17.597  0.00  0.00    +0.075 S 
ATOM     15  O   UNL     1     -32.532  -9.936  18.443  0.00  0.00    -0.150 OA
ATOM     16  O   UNL     1     -31.220  -9.205  16.504  0.00  0.00    -0.150 OA
BRANCH  14  17
ATOM     17  C   UNL     1     -31.470 -11.820  16.870  0.00  0.00    +0.146 A 
ATOM     18  C   UNL     1     -32.203 -12.890  17.340  0.00  0.00    +0.163 A 
ATOM     19  N   UNL     1     -31.919 -13.975  16.593  0.00  0.00    -0.177 NA
ATOM     20  N   UNL     1     -31.046 -13.609  15.663  0.00  0.00    -0.267 N 
ATOM     21  C   UNL     1     -30.739 -12.306  15.812  0.00  0.00    +0.137 A 
BRANCH  20  22
ATOM     22  C   UNL     1     -30.388 -14.533  14.737  0.00  0.00    +0.101 C 
ATOM     23  C   UNL     1     -28.897 -14.657  15.065  0.00  0.00    +0.032 C 
ATOM     24  C   UNL     1     -30.597 -14.059  13.298  0.00  0.00    +0.032 C 
ENDBRANCH  20  22
ENDBRANCH  14  17
ENDBRANCH   1  14
TORSDOF 4
ENDMDL
MODEL 6
REMARK VINA RESULT:    -4.311      2.819      3.954
REMARK INTER + INTRA:          -5.851
REMARK INTER:                  -5.343
REMARK INTRA:                  -0.508
REMARK UNBOUND:                -0.532
REMARK  Name = 
REMARK  7 active torsions:
REMARK  status: ('A' for Active; 'I' for Inactive)
REMARK    1  A    between atoms: C_1  and  C_2
REMARK    2  A    between atoms: C_3  and  N_11
REMARK    3  A    between atoms: N_11  and  S_12
REMARK    4  A    between atoms: S_12  and  C_15
REMARK    5  A    between atoms: N_18  and  C_20
REMARK    6  A    between atoms: C_20  and  C_21
REMARK    7  A    between atoms: C_20  and  C_22
REMARK                            x       y       z     vdW  Elec       q    Type
REMARK                         _______ _______ _______ _____ _____    ______ ____
ROOT
ATOM      1  N   UNL     1     -29.738 -14.274  18.420  0.00  0.00    -0.214 N 
ATOM      2  H   UNL     1     -29.693 -15.302  18.592  0.00  0.00    +0.174 HD
ENDROOT
BRANCH   1   5
ATOM      3  C   UNL     1     -29.074 -14.527  15.566  0.00  0.00    +0.046 C 
ATOM      4  C   UNL     1     -30.337 -13.862  16.044  0.00  0.00    -0.016 A 
ATOM      5  C   UNL     1     -30.637 -13.748  17.429  0.00  0.00    +0.070 A 
ATOM      6  C   UNL     1     -31.835 -13.098  17.827  0.00  0.00    +0.137 A 
ATOM      7  N   UNL     1     -32.697 -12.585  16.902  0.00  0.00    -0.236 NA
ATOM      8  C   UNL     1     -32.402 -12.705  15.587  0.00  0.00    +0.138 A 
ATOM      9  N   UNL     1     -33.153 -12.257  14.571  0.00  0.00    -0.346 N 
ATOM     10  C   UNL     1     -32.483 -12.602  13.448  0.00  0.00    +0.085 A 
ATOM     11  C   UNL     1     -31.302 -13.269  13.763  0.00  0.00    +0.029 A 
ATOM     12  C   UNL     1     -31.268 -13.325  15.145  0.00  0.00    +0.023 A 
ATOM     13  H   UNL     1     -34.064 -11.752  14.631  0.00  0.00    +0.167 HD
ENDBRANCH   1   5
BRANCH   1  14
ATOM     14  S   UNL     1     -28.517 -13.293  19.166  0.00  0.00    +0.075 S 
ATOM     15  O   UNL     1     -27.785 -14.105  20.197  0.00  0.00    -0.150 OA
ATOM     16  O   UNL     1     -27.544 -12.820  18.122  0.00  0.00    -0.150 OA
BRANCH  14  17
ATOM     17  C   UNL     1     -29.267 -11.897  19.916  0.00  0.00    +0.146 A 
ATOM     18  C   UNL     1     -29.993 -11.868  21.089  0.00  0.00    +0.163 A 
ATOM     19  N   UNL     1     -30.540 -10.645  21.233  0.00  0.00    -0.177 NA
ATOM     20  N   UNL     1     -30.162  -9.908  20.196  0.00  0.00    -0.267 N 
ATOM     21  C   UNL     1     -29.398 -10.644  19.366  0.00  0.00    +0.137 A 
BRANCH  20  22
ATOM     22  C   UNL     1     -30.656  -8.558  19.918  0.00  0.00    +0.101 C 
ATOM     23  C   UNL     1     -30.961  -7.815  21.222  0.00  0.00    +0.032 C 
ATOM     24  C   UNL     1     -31.895  -8.634  19.025  0.00  0.00    +0.032 C 
ENDBRANCH  20  22
ENDBRANCH  14  17
ENDBRANCH   1  14
TORSDOF 4
ENDMDL
MODEL 7
REMARK VINA RESULT:    -4.277      3.277      5.630
REMARK INTER + INTRA:          -5.809
REMARK INTER:                  -5.334
REMARK INTRA:                  -0.475
REMARK UNBOUND:                -0.532
REMARK  Name = 
REMARK  7 active torsions:
REMARK  status: ('A' for Active; 'I' for Inactive)
REMARK    1  A    between atoms: C_1  and  C_2
REMARK    2  A    between atoms: C_3  and  N_11
REMARK    3  A    between atoms: N_11  and  S_12
REMARK    4  A    between atoms: S_12  and  C_15
REMARK    5  A    between atoms: N_18  and  C_20
REMARK    6  A    between atoms: C_20  and  C_21
REMARK    7  A    between atoms: C_20  and  C_22
REMARK                            x       y       z     vdW  Elec       q    Type
REMARK                         _______ _______ _______ _____ _____    ______ ____
ROOT
ATOM      1  N   UNL     1     -28.538 -11.253  19.313  0.00  0.00    -0.214 N 
ATOM      2  H   UNL     1     -27.802 -10.781  19.882  0.00  0.00    +0.174 HD
ENDROOT
BRANCH   1   5
ATOM      3  C   UNL     1     -30.732 -10.490  21.119  0.00  0.00    +0.046 C 
ATOM      4  C   UNL     1     -30.719 -10.114  19.661  0.00  0.00    -0.016 A 
ATOM      5  C   UNL     1     -29.650 -10.496  18.805  0.00  0.00    +0.070 A 
ATOM      6  C   UNL     1     -29.695 -10.129  17.434  0.00  0.00    +0.137 A 
ATOM      7  N   UNL     1     -30.746  -9.419  16.931  0.00  0.00    -0.236 NA
ATOM      8  C   UNL     1     -31.755  -9.057  17.757  0.00  0.00    +0.138 A 
ATOM      9  N   UNL     1     -32.842  -8.356  17.407  0.00  0.00    -0.346 N 
ATOM     10  C   UNL     1     -33.565  -8.221  18.542  0.00  0.00    +0.085 A 
ATOM     11  C   UNL     1     -32.926  -8.843  19.611  0.00  0.00    +0.029 A 
ATOM     12  C   UNL     1     -31.763  -9.376  19.086  0.00  0.00    +0.023 A 
ATOM     13  H   UNL     1     -33.082  -7.989  16.460  0.00  0.00    +0.167 HD
ENDBRANCH   1   5
BRANCH   1  14
ATOM     14  S   UNL     1     -28.501 -12.986  19.249  0.00  0.00    +0.075 S 
ATOM     15  O   UNL     1     -27.082 -13.448  19.068  0.00  0.00    -0.150 OA
ATOM     16  O   UNL     1     -29.047 -13.548  20.532  0.00  0.00    -0.150 OA
BRANCH  14  17
ATOM     17  C   UNL     1     -29.494 -13.544  17.917  0.00  0.00    +0.146 A 
ATOM     18  C   UNL     1     -30.796 -13.996  17.978  0.00  0.00    +0.163 A 
ATOM     19  N   UNL     1     -31.143 -14.489  16.772  0.00  0.00    -0.177 NA
ATOM     20  N   UNL     1     -30.104 -14.342  15.960  0.00  0.00    -0.267 N 
ATOM     21  C   UNL     1     -29.076 -13.783  16.629  0.00  0.00    +0.137 A 
BRANCH  20  22
ATOM     22  C   UNL     1     -30.036 -14.874  14.598  0.00  0.00    +0.101 C 
ATOM     23  C   UNL     1     -28.580 -15.062  14.163  0.00  0.00    +0.032 C 
ATOM     24  C   UNL     1     -30.781 -13.943  13.640  0.00  0.00    +0.032 C 
ENDBRANCH  20  22
ENDBRANCH  14  17
ENDBRANCH   1  14
TORSDOF 4
ENDMDL
MODEL 8
REMARK VINA RESULT:    -4.122      1.277      1.858
REMARK INTER + INTRA:          -5.618
REMARK INTER:                  -5.041
REMARK INTRA:                  -0.578
REMARK UNBOUND:                -0.532
REMARK  Name = 
REMARK  7 active torsions:
REMARK  status: ('A' for Active; 'I' for Inactive)
REMARK    1  A    between atoms: C_1  and  C_2
REMARK    2  A    between atoms: C_3  and  N_11
REMARK    3  A    between atoms: N_11  and  S_12
REMARK    4  A    between atoms: S_12  and  C_15
REMARK    5  A    between atoms: N_18  and  C_20
REMARK    6  A    between atoms: C_20  and  C_21
REMARK    7  A    between atoms: C_20  and  C_22
REMARK                            x       y       z     vdW  Elec       q    Type
REMARK                         _______ _______ _______ _____ _____    ______ ____
ROOT
ATOM      1  N   UNL     1     -31.077 -11.702  17.592  0.00  0.00    -0.214 N 
ATOM      2  H   UNL     1     -31.709 -12.042  18.350  0.00  0.00    +0.174 HD
ENDROOT
BRANCH   1   5
ATOM      3  C   UNL     1     -32.912 -10.760  15.495  0.00  0.00    +0.046 C 
ATOM      4  C   UNL     1     -31.959 -11.905  15.278  0.00  0.00    -0.016 A 
ATOM      5  C   UNL     1     -31.082 -12.346  16.307  0.00  0.00    +0.070 A 
ATOM      6  C   UNL     1     -30.214 -13.441  16.055  0.00  0.00    +0.137 A 
ATOM      7  N   UNL     1     -30.210 -14.071  14.845  0.00  0.00    -0.236 NA
ATOM      8  C   UNL     1     -31.046 -13.638  13.873  0.00  0.00    +0.138 A 
ATOM      9  N   UNL     1     -31.147 -14.153  12.639  0.00  0.00    -0.346 N 
ATOM     10  C   UNL     1     -32.088 -13.411  12.015  0.00  0.00    +0.085 A 
ATOM     11  C   UNL     1     -32.581 -12.423  12.863  0.00  0.00    +0.029 A 
ATOM     12  C   UNL     1     -31.898 -12.587  14.055  0.00  0.00    +0.023 A 
ATOM     13  H   UNL     1     -30.611 -14.956  12.242  0.00  0.00    +0.167 HD
ENDBRANCH   1   5
BRANCH   1  14
ATOM     14  S   UNL     1     -29.865 -10.542  18.034  0.00  0.00    +0.075 S 
ATOM     15  O   UNL     1     -29.446  -9.769  16.815  0.00  0.00    -0.150 OA
ATOM     16  O   UNL     1     -30.426  -9.593  19.056  0.00  0.00    -0.150 OA
BRANCH  14  17
ATOM     17  C   UNL     1     -28.486 -11.373  18.728  0.00  0.00    +0.146 A 
ATOM     18  C   UNL     1     -27.173 -11.302  18.312  0.00  0.00    +0.163 A 
ATOM     19  N   UNL     1     -26.451 -12.215  18.992  0.00  0.00    -0.177 NA
ATOM     20  N   UNL     1     -27.271 -12.838  19.829  0.00  0.00    -0.267 N 
ATOM     21  C   UNL     1     -28.522 -12.361  19.683  0.00  0.00    +0.137 A 
BRANCH  20  22
ATOM     22  C   UNL     1     -26.895 -13.991  20.650  0.00  0.00    +0.101 C 
ATOM     23  C   UNL     1     -27.472 -13.860  22.063  0.00  0.00    +0.032 C 
ATOM     24  C   UNL     1     -25.372 -14.124  20.688  0.00  0.00    +0.032 C 
ENDBRANCH  20  22
ENDBRANCH  14  17
ENDBRANCH   1  14
TORSDOF 4
ENDMDL
