MODEL 1
REMARK VINA RESULT:    -4.839      0.000      0.000
REMARK INTER + INTRA:          -7.813
REMARK INTER:                  -6.536
REMARK INTRA:                  -1.277
REMARK UNBOUND:                -1.277
REMARK  Name = 
REMARK  8 active torsions:
REMARK  status: ('A' for Active; 'I' for Inactive)
REMARK    1  A    between atoms: C_1  and  O_2
REMARK    2  A    between atoms: O_2  and  C_3
REMARK    3  A    between atoms: C_6  and  S_12
REMARK    4  A    between atoms: C_8  and  C_9
REMARK    5  A    between atoms: S_12  and  N_15
REMARK    6  A    between atoms: N_15  and  C_16
REMARK    7  A    between atoms: C_16  and  C_17
REMARK    8  A    between atoms: C_16  and  C_18
REMARK                            x       y       z     vdW  Elec       q    Type
REMARK                         _______ _______ _______ _____ _____    ______ ____
ROOT
ATOM      1  C   UNL     1     -30.009 -10.937  18.150  0.00  0.00    +0.132 A 
ATOM      2  C   UNL     1     -30.076 -10.077  17.035  0.00  0.00    +0.048 A 
ATOM      3  C   UNL     1     -31.233 -10.012  16.257  0.00  0.00    +0.032 A 
ATOM      4  C   UNL     1     -32.344 -10.796  16.580  0.00  0.00    +0.106 A 
ATOM      5  C   UNL     1     -32.294 -11.643  17.695  0.00  0.00    +0.045 A 
ATOM      6  C   UNL     1     -31.131 -11.733  18.480  0.00  0.00    +0.080 A 
ENDROOT
BRANCH   6   7
ATOM      7  C   UNL     1     -31.100 -12.656  19.642  0.00  0.00    +0.245 C 
ATOM      8  N   UNL     1     -30.842 -14.054  19.469  0.00  0.00    -0.325 N 
ATOM      9  O   UNL     1     -31.309 -12.214  20.803  0.00  0.00    -0.270 OA
ATOM     10  H   UNL     1     -30.549 -14.444  18.547  0.00  0.00    +0.145 HD
ATOM     11  H   UNL     1     -30.867 -14.694  20.292  0.00  0.00    +0.145 HD
ENDBRANCH   6   7
BRANCH   4  12
ATOM     12  S   UNL     1     -33.797 -10.749  15.579  0.00  0.00    +0.059 S 
ATOM     13  O   UNL     1     -34.999 -10.588  16.465  0.00  0.00    -0.153 OA
ATOM     14  O   UNL     1     -33.733  -9.586  14.627  0.00  0.00    -0.153 OA
BRANCH  12  15
ATOM     15  N   UNL     1     -33.946 -12.221  14.662  0.00  0.00    -0.181 NA
ATOM     16  H   UNL     1     -33.747 -13.005  15.323  0.00  0.00    +0.149 HD
BRANCH  15  17
ATOM     17  C   UNL     1     -33.021 -12.229  13.509  0.00  0.00    +0.122 C 
ATOM     18  C   UNL     1     -33.795 -12.596  12.240  0.00  0.00    +0.032 C 
BRANCH  17  19
ATOM     19  C   UNL     1     -31.868 -13.190  13.727  0.00  0.00    +0.059 A 
ATOM     20  C   UNL     1     -31.063 -13.624  12.658  0.00  0.00    +0.025 A 
ATOM     21  C   UNL     1     -30.024 -14.524  12.903  0.00  0.00    +0.003 A 
ATOM     22  C   UNL     1     -29.793 -14.983  14.202  0.00  0.00    +0.020 A 
ATOM     23  C   UNL     1     -30.611 -14.532  15.240  0.00  0.00    +0.111 A 
ATOM     24  N   UNL     1     -31.619 -13.656  14.984  0.00  0.00    -0.258 NA
ENDBRANCH  17  19
ENDBRANCH  15  17
ENDBRANCH  12  15
ENDBRANCH   4  12
BRANCH   1  26
ATOM     25  C   UNL     1     -27.619 -11.608  18.491  0.00  0.00    +0.277 C 
ATOM     26  O   UNL     1     -28.845 -11.034  18.932  0.00  0.00    -0.494 OA
ENDBRANCH   1  26
TORSDOF 6
ENDMDL
MODEL 2
REMARK VINA RESULT:    -4.732      2.409      4.721
REMARK INTER + INTRA:          -7.668
REMARK INTER:                  -6.546
REMARK INTRA:                  -1.122
REMARK UNBOUND:                -1.277
REMARK  Name = 
REMARK  8 active torsions:
REMARK  status: ('A' for Active; 'I' for Inactive)
REMARK    1  A    between atoms: C_1  and  O_2
REMARK    2  A    between atoms: O_2  and  C_3
REMARK    3  A    between atoms: C_6  and  S_12
REMARK    4  A    between atoms: C_8  and  C_9
REMARK    5  A    between atoms: S_12  and  N_15
REMARK    6  A    between atoms: N_15  and  C_16
REMARK    7  A    between atoms: C_16  and  C_17
REMARK    8  A    between atoms: C_16  and  C_18
REMARK                            x       y       z     vdW  Elec       q    Type
REMARK                         _______ _______ _______ _____ _____    ______ ____
ROOT
ATOM      1  C   UNL     1     -29.951 -14.303  14.047  0.00  0.00    +0.132 A 
ATOM      2  C   UNL     1     -30.713 -13.978  12.905  0.00  0.00    +0.048 A 
ATOM      3  C   UNL     1     -31.893 -13.244  13.025  0.00  0.00    +0.032 A 
ATOM      4  C   UNL     1     -32.332 -12.815  14.281  0.00  0.00    +0.106 A 
ATOM      5  C   UNL     1     -31.576 -13.119  15.420  0.00  0.00    +0.045 A 
ATOM      6  C   UNL     1     -30.392 -13.873  15.319  0.00  0.00    +0.080 A 
ENDROOT
BRANCH   6   7
ATOM      7  C   UNL     1     -29.623 -14.198  16.547  0.00  0.00    +0.245 C 
ATOM      8  N   UNL     1     -30.200 -14.988  17.593  0.00  0.00    -0.325 N 
ATOM      9  O   UNL     1     -28.446 -13.772  16.685  0.00  0.00    -0.270 OA
ATOM     10  H   UNL     1     -31.124 -15.458  17.473  0.00  0.00    +0.145 HD
ATOM     11  H   UNL     1     -29.660 -15.171  18.466  0.00  0.00    +0.145 HD
ENDBRANCH   6   7
BRANCH   4  12
ATOM     12  S   UNL     1     -33.844 -11.919  14.445  0.00  0.00    +0.059 S 
ATOM     13  O   UNL     1     -34.717 -12.207  13.258  0.00  0.00    -0.153 OA
ATOM     14  O   UNL     1     -34.564 -12.340  15.697  0.00  0.00    -0.153 OA
BRANCH  12  15
ATOM     15  N   UNL     1     -33.525 -10.209  14.528  0.00  0.00    -0.181 NA
ATOM     16  H   UNL     1     -32.528 -10.078  14.245  0.00  0.00    +0.149 HD
BRANCH  15  17
ATOM     17  C   UNL     1     -33.782  -9.682  15.886  0.00  0.00    +0.122 C 
ATOM     18  C   UNL     1     -34.313  -8.250  15.780  0.00  0.00    +0.032 C 
BRANCH  17  19
ATOM     19  C   UNL     1     -32.534  -9.726  16.746  0.00  0.00    +0.059 A 
ATOM     20  C   UNL     1     -31.249  -9.753  16.173  0.00  0.00    +0.025 A 
ATOM     21  C   UNL     1     -30.129  -9.812  17.005  0.00  0.00    +0.003 A 
ATOM     22  C   UNL     1     -30.292  -9.844  18.391  0.00  0.00    +0.020 A 
ATOM     23  C   UNL     1     -31.582  -9.818  18.927  0.00  0.00    +0.111 A 
ATOM     24  N   UNL     1     -32.662  -9.761  18.103  0.00  0.00    -0.258 NA
ENDBRANCH  17  19
ENDBRANCH  15  17
ENDBRANCH  12  15
ENDBRANCH   4  12
BRANCH   1  26
ATOM     25  C   UNL     1     -27.795 -14.912  12.924  0.00  0.00    +0.277 C 
ATOM     26  O   UNL     1     -28.772 -15.062  13.949  0.00  0.00    -0.494 OA
ENDBRANCH   1  26
TORSDOF 6
ENDMDL
MODEL 3
REMARK VINA RESULT:    -4.642      2.940      6.679
REMARK INTER + INTRA:          -7.548
REMARK INTER:                  -6.414
REMARK INTRA:                  -1.134
REMARK UNBOUND:                -1.277
REMARK  Name = 
REMARK  8 active torsions:
REMARK  status: ('A' for Active; 'I' for Inactive)
REMARK    1  A    between atoms: C_1  and  O_2
REMARK    2  A    between atoms: O_2  and  C_3
REMARK    3  A    between atoms: C_6  and  S_12
REMARK    4  A    between atoms: C_8  and  C_9
REMARK    5  A    between atoms: S_12  and  N_15
REMARK    6  A    between atoms: N_15  and  C_16
REMARK    7  A    between atoms: C_16  and  C_17
REMARK    8  A    between atoms: C_16  and  C_18
REMARK                            x       y       z     vdW  Elec       q    Type
REMARK                         _______ _______ _______ _____ _____    ______ ____
ROOT
ATOM      1  C   UNL     1     -32.321 -11.959  13.922  0.00  0.00    +0.132 A 
ATOM      2  C   UNL     1     -31.538 -13.081  13.580  0.00  0.00    +0.048 A 
ATOM      3  C   UNL     1     -30.603 -13.595  14.480  0.00  0.00    +0.032 A 
ATOM      4  C   UNL     1     -30.438 -13.006  15.737  0.00  0.00    +0.106 A 
ATOM      5  C   UNL     1     -31.222 -11.901  16.093  0.00  0.00    +0.045 A 
ATOM      6  C   UNL     1     -32.157 -11.360  15.192  0.00  0.00    +0.080 A 
ENDROOT
BRANCH   6   7
ATOM      7  C   UNL     1     -32.958 -10.175  15.590  0.00  0.00    +0.245 C 
ATOM      8  N   UNL     1     -34.374 -10.137  15.383  0.00  0.00    -0.325 N 
ATOM      9  O   UNL     1     -32.391  -9.179  16.112  0.00  0.00    -0.270 OA
ATOM     10  H   UNL     1     -34.900 -10.980  15.064  0.00  0.00    +0.145 HD
ATOM     11  H   UNL     1     -34.913  -9.280  15.630  0.00  0.00    +0.145 HD
ENDBRANCH   6   7
BRANCH   4  12
ATOM     12  S   UNL     1     -29.232 -13.626  16.866  0.00  0.00    +0.059 S 
ATOM     13  O   UNL     1     -29.874 -14.649  17.759  0.00  0.00    -0.153 OA
ATOM     14  O   UNL     1     -28.102 -14.275  16.114  0.00  0.00    -0.153 OA
BRANCH  12  15
ATOM     15  N   UNL     1     -28.592 -12.331  17.837  0.00  0.00    -0.181 NA
ATOM     16  H   UNL     1     -27.556 -12.337  17.697  0.00  0.00    +0.149 HD
BRANCH  15  17
ATOM     17  C   UNL     1     -28.952 -12.501  19.262  0.00  0.00    +0.122 C 
ATOM     18  C   UNL     1     -29.287 -11.134  19.865  0.00  0.00    +0.032 C 
BRANCH  17  19
ATOM     19  C   UNL     1     -27.838 -13.171  20.041  0.00  0.00    +0.059 A 
ATOM     20  C   UNL     1     -28.096 -13.872  21.234  0.00  0.00    +0.025 A 
ATOM     21  C   UNL     1     -27.035 -14.458  21.928  0.00  0.00    +0.003 A 
ATOM     22  C   UNL     1     -25.734 -14.344  21.436  0.00  0.00    +0.020 A 
ATOM     23  C   UNL     1     -25.512 -13.640  20.250  0.00  0.00    +0.111 A 
ATOM     24  N   UNL     1     -26.556 -13.075  19.586  0.00  0.00    -0.258 NA
ENDBRANCH  17  19
ENDBRANCH  15  17
ENDBRANCH  12  15
ENDBRANCH   4  12
BRANCH   1  26
ATOM     25  C   UNL     1     -34.106 -12.177  12.176  0.00  0.00    +0.277 C 
ATOM     26  O   UNL     1     -33.251 -11.413  13.020  0.00  0.00    -0.494 OA
ENDBRANCH   1  26
TORSDOF 6
ENDMDL
MODEL 4
REMARK VINA RESULT:    -4.581      3.400      4.889
REMARK INTER + INTRA:          -7.465
REMARK INTER:                  -5.557
REMARK INTRA:                  -1.908
REMARK UNBOUND:                -1.277
REMARK  Name = 
REMARK  8 active torsions:
REMARK  status: ('A' for Active; 'I' for Inactive)
REMARK    1  A    between atoms: C_1  and  O_2
REMARK    2  A    between atoms: O_2  and  C_3
REMARK    3  A    between atoms: C_6  and  S_12
REMARK    4  A    between atoms: C_8  and  C_9
REMARK    5  A    between atoms: S_12  and  N_15
REMARK    6  A    between atoms: N_15  and  C_16
REMARK    7  A    between atoms: C_16  and  C_17
REMARK    8  A    between atoms: C_16  and  C_18
REMARK                            x       y       z     vdW  Elec       q    Type
REMARK                         _______ _______ _______ _____ _____    ______ ____
ROOT
ATOM      1  C   UNL     1     -29.862 -12.826  19.978  0.00  0.00    +0.132 A 
ATOM      2  C   UNL     1     -29.841 -11.973  21.102  0.00  0.00    +0.048 A 
ATOM      3  C   UNL     1     -30.966 -11.223  21.445  0.00  0.00    +0.032 A 
ATOM      4  C   UNL     1     -32.133 -11.313  20.681  0.00  0.00    +0.106 A 
ATOM      5  C   UNL     1     -32.171 -12.168  19.572  0.00  0.00    +0.045 A 
ATOM      6  C   UNL     1     -31.041 -12.919  19.202  0.00  0.00    +0.080 A 
ENDROOT
BRANCH   6   7
ATOM      7  C   UNL     1     -31.104 -13.799  18.008  0.00  0.00    +0.245 C 
ATOM      8  N   UNL     1     -30.290 -14.973  17.912  0.00  0.00    -0.325 N 
ATOM      9  O   UNL     1     -31.878 -13.515  17.056  0.00  0.00    -0.270 OA
ATOM     10  H   UNL     1     -29.724 -15.311  18.721  0.00  0.00    +0.145 HD
ATOM     11  H   UNL     1     -30.317 -15.556  17.048  0.00  0.00    +0.145 HD
ENDBRANCH   6   7
BRANCH   4  12
ATOM     12  S   UNL     1     -33.548 -10.339  21.086  0.00  0.00    +0.059 S 
ATOM     13  O   UNL     1     -34.488 -11.160  21.920  0.00  0.00    -0.153 OA
ATOM     14  O   UNL     1     -33.134  -9.123  21.870  0.00  0.00    -0.153 OA
BRANCH  12  15
ATOM     15  N   UNL     1     -34.361  -9.823  19.636  0.00  0.00    -0.181 NA
ATOM     16  H   UNL     1     -34.440 -10.666  19.023  0.00  0.00    +0.149 HD
BRANCH  15  17
ATOM     17  C   UNL     1     -33.623  -8.730  18.968  0.00  0.00    +0.122 C 
ATOM     18  C   UNL     1     -34.617  -7.679  18.468  0.00  0.00    +0.032 C 
BRANCH  17  19
ATOM     19  C   UNL     1     -32.774  -9.249  17.824  0.00  0.00    +0.059 A 
ATOM     20  C   UNL     1     -33.357  -9.800  16.668  0.00  0.00    +0.025 A 
ATOM     21  C   UNL     1     -32.536 -10.282  15.647  0.00  0.00    +0.003 A 
ATOM     22  C   UNL     1     -31.148 -10.214  15.781  0.00  0.00    +0.020 A 
ATOM     23  C   UNL     1     -30.600  -9.662  16.942  0.00  0.00    +0.111 A 
ATOM     24  N   UNL     1     -31.415  -9.197  17.926  0.00  0.00    -0.258 NA
ENDBRANCH  17  19
ENDBRANCH  15  17
ENDBRANCH  12  15
ENDBRANCH   4  12
BRANCH   1  26
ATOM     25  C   UNL     1     -27.477 -13.535  20.276  0.00  0.00    +0.277 C 
ATOM     26  O   UNL     1     -28.732 -13.571  19.603  0.00  0.00    -0.494 OA
ENDBRANCH   1  26
TORSDOF 6
ENDMDL
MODEL 5
REMARK VINA RESULT:    -4.454      2.946      6.436
REMARK INTER + INTRA:          -7.293
REMARK INTER:                  -6.401
REMARK INTRA:                  -0.892
REMARK UNBOUND:                -1.277
REMARK  Name = 
REMARK  8 active torsions:
REMARK  status: ('A' for Active; 'I' for Inactive)
REMARK    1  A    between atoms: C_1  and  O_2
REMARK    2  A    between atoms: O_2  and  C_3
REMARK    3  A    between atoms: C_6  and  S_12
REMARK    4  A    between atoms: C_8  and  C_9
REMARK    5  A    between atoms: S_12  and  N_15
REMARK    6  A    between atoms: N_15  and  C_16
REMARK    7  A    between atoms: C_16  and  C_17
REMARK    8  A    between atoms: C_16  and  C_18
REMARK                            x       y       z     vdW  Elec       q    Type
REMARK                         _______ _______ _______ _____ _____    ______ ____
ROOT
ATOM      1  C   UNL     1     -32.682 -10.419  15.254  0.00  0.00    +0.132 A 
ATOM      2  C   UNL     1     -31.556 -11.268  15.235  0.00  0.00    +0.048 A 
ATOM      3  C   UNL     1     -30.611 -11.218  16.261  0.00  0.00    +0.032 A 
ATOM      4  C   UNL     1     -30.775 -10.327  17.326  0.00  0.00    +0.106 A 
ATOM      5  C   UNL     1     -31.897  -9.490  17.363  0.00  0.00    +0.045 A 
ATOM      6  C   UNL     1     -32.850  -9.516  16.329  0.00  0.00    +0.080 A 
ENDROOT
BRANCH   6   7
ATOM      7  C   UNL     1     -34.018  -8.600  16.385  0.00  0.00    +0.245 C 
ATOM      8  N   UNL     1     -34.245  -7.629  15.358  0.00  0.00    -0.325 N 
ATOM      9  O   UNL     1     -34.824  -8.667  17.350  0.00  0.00    -0.270 OA
ATOM     10  H   UNL     1     -33.673  -7.616  14.485  0.00  0.00    +0.145 HD
ATOM     11  H   UNL     1     -35.046  -6.967  15.436  0.00  0.00    +0.145 HD
ENDBRANCH   6   7
BRANCH   4  12
ATOM     12  S   UNL     1     -29.565 -10.230  18.608  0.00  0.00    +0.059 S 
ATOM     13  O   UNL     1     -28.195 -10.265  17.994  0.00  0.00    -0.153 OA
ATOM     14  O   UNL     1     -29.725  -8.948  19.376  0.00  0.00    -0.153 OA
BRANCH  12  15
ATOM     15  N   UNL     1     -29.741 -11.570  19.705  0.00  0.00    -0.181 NA
ATOM     16  H   UNL     1     -29.255 -11.297  20.589  0.00  0.00    +0.149 HD
BRANCH  15  17
ATOM     17  C   UNL     1     -29.175 -12.810  19.132  0.00  0.00    +0.122 C 
ATOM     18  C   UNL     1     -30.295 -13.837  18.942  0.00  0.00    +0.032 C 
BRANCH  17  19
ATOM     19  C   UNL     1     -28.074 -13.377  20.006  0.00  0.00    +0.059 A 
ATOM     20  C   UNL     1     -28.352 -13.928  21.271  0.00  0.00    +0.025 A 
ATOM     21  C   UNL     1     -27.304 -14.422  22.050  0.00  0.00    +0.003 A 
ATOM     22  C   UNL     1     -25.994 -14.364  21.570  0.00  0.00    +0.020 A 
ATOM     23  C   UNL     1     -25.752 -13.810  20.311  0.00  0.00    +0.111 A 
ATOM     24  N   UNL     1     -26.784 -13.333  19.565  0.00  0.00    -0.258 NA
ENDBRANCH  17  19
ENDBRANCH  15  17
ENDBRANCH  12  15
ENDBRANCH   4  12
BRANCH   1  26
ATOM     25  C   UNL     1     -34.000 -11.599  13.479  0.00  0.00    +0.277 C 
ATOM     26  O   UNL     1     -33.632 -10.439  14.218  0.00  0.00    -0.494 OA
ENDBRANCH   1  26
TORSDOF 6
ENDMDL
MODEL 6
REMARK VINA RESULT:    -4.419      1.989      2.576
REMARK INTER + INTRA:          -7.246
REMARK INTER:                  -5.681
REMARK INTRA:                  -1.564
REMARK UNBOUND:                -1.277
REMARK  Name = 
REMARK  8 active torsions:
REMARK  status: ('A' for Active; 'I' for Inactive)
REMARK    1  A    between atoms: C_1  and  O_2
REMARK    2  A    between atoms: O_2  and  C_3
REMARK    3  A    between atoms: C_6  and  S_12
REMARK    4  A    between atoms: C_8  and  C_9
REMARK    5  A    between atoms: S_12  and  N_15
REMARK    6  A    between atoms: N_15  and  C_16
REMARK    7  A    between atoms: C_16  and  C_17
REMARK    8  A    between atoms: C_16  and  C_18
REMARK                            x       y       z     vdW  Elec       q    Type
REMARK                         _______ _______ _______ _____ _____    ______ ____
ROOT
ATOM      1  C   UNL     1     -29.776 -11.699  17.770  0.00  0.00    +0.132 A 
ATOM      2  C   UNL     1     -29.894 -10.294  17.804  0.00  0.00    +0.048 A 
ATOM      3  C   UNL     1     -31.140  -9.682  17.664  0.00  0.00    +0.032 A 
ATOM      4  C   UNL     1     -32.291 -10.457  17.495  0.00  0.00    +0.106 A 
ATOM      5  C   UNL     1     -32.188 -11.854  17.475  0.00  0.00    +0.045 A 
ATOM      6  C   UNL     1     -30.938 -12.487  17.598  0.00  0.00    +0.080 A 
ENDROOT
BRANCH   6   7
ATOM      7  C   UNL     1     -30.858 -13.969  17.551  0.00  0.00    +0.245 C 
ATOM      8  N   UNL     1     -29.861 -14.679  18.293  0.00  0.00    -0.325 N 
ATOM      9  O   UNL     1     -31.672 -14.621  16.844  0.00  0.00    -0.270 OA
ATOM     10  H   UNL     1     -29.244 -14.193  18.980  0.00  0.00    +0.145 HD
ATOM     11  H   UNL     1     -29.794 -15.717  18.215  0.00  0.00    +0.145 HD
ENDBRANCH   6   7
BRANCH   4  12
ATOM     12  S   UNL     1     -33.866  -9.690  17.280  0.00  0.00    +0.059 S 
ATOM     13  O   UNL     1     -34.696  -9.917  18.510  0.00  0.00    -0.153 OA
ATOM     14  O   UNL     1     -33.697  -8.210  17.069  0.00  0.00    -0.153 OA
BRANCH  12  15
ATOM     15  N   UNL     1     -34.681 -10.366  15.898  0.00  0.00    -0.181 NA
ATOM     16  H   UNL     1     -34.649 -11.404  16.011  0.00  0.00    +0.149 HD
BRANCH  15  17
ATOM     17  C   UNL     1     -34.044  -9.933  14.636  0.00  0.00    +0.122 C 
ATOM     18  C   UNL     1     -35.045  -9.111  13.820  0.00  0.00    +0.032 C 
BRANCH  17  19
ATOM     19  C   UNL     1     -33.544 -11.116  13.831  0.00  0.00    +0.059 A 
ATOM     20  C   UNL     1     -34.346 -11.729  12.850  0.00  0.00    +0.025 A 
ATOM     21  C   UNL     1     -33.849 -12.828  12.146  0.00  0.00    +0.003 A 
ATOM     22  C   UNL     1     -32.567 -13.307  12.419  0.00  0.00    +0.020 A 
ATOM     23  C   UNL     1     -31.797 -12.677  13.399  0.00  0.00    +0.111 A 
ATOM     24  N   UNL     1     -32.295 -11.608  14.076  0.00  0.00    -0.258 NA
ENDBRANCH  17  19
ENDBRANCH  15  17
ENDBRANCH  12  15
ENDBRANCH   4  12
BRANCH   1  26
ATOM     25  C   UNL     1     -27.568 -12.053  18.901  0.00  0.00    +0.277 C 
ATOM     26  O   UNL     1     -28.527 -12.333  17.886  0.00  0.00    -0.494 OA
ENDBRANCH   1  26
TORSDOF 6
ENDMDL
MODEL 7
REMARK VINA RESULT:    -4.403      2.726      6.510
REMARK INTER + INTRA:          -7.225
REMARK INTER:                  -5.593
REMARK INTRA:                  -1.632
REMARK UNBOUND:                -1.277
REMARK  Name = 
REMARK  8 active torsions:
REMARK  status: ('A' for Active; 'I' for Inactive)
REMARK    1  A    between atoms: C_1  and  O_2
REMARK    2  A    between atoms: O_2  and  C_3
REMARK    3  A    between atoms: C_6  and  S_12
REMARK    4  A    between atoms: C_8  and  C_9
REMARK    5  A    between atoms: S_12  and  N_15
REMARK    6  A    between atoms: N_15  and  C_16
REMARK    7  A    between atoms: C_16  and  C_17
REMARK    8  A    between atoms: C_16  and  C_18
REMARK                            x       y       z     vdW  Elec       q    Type
REMARK                         _______ _______ _______ _____ _____    ______ ____
ROOT
ATOM      1  C   UNL     1     -31.849 -10.195  16.340  0.00  0.00    +0.132 A 
ATOM      2  C   UNL     1     -30.785  -9.707  17.125  0.00  0.00    +0.048 A 
ATOM      3  C   UNL     1     -29.756 -10.557  17.534  0.00  0.00    +0.032 A 
ATOM      4  C   UNL     1     -29.766 -11.904  17.163  0.00  0.00    +0.106 A 
ATOM      5  C   UNL     1     -30.810 -12.397  16.370  0.00  0.00    +0.045 A 
ATOM      6  C   UNL     1     -31.864 -11.558  15.963  0.00  0.00    +0.080 A 
ENDROOT
BRANCH   6   7
ATOM      7  C   UNL     1     -32.968 -12.114  15.142  0.00  0.00    +0.245 C 
ATOM      8  N   UNL     1     -34.337 -11.928  15.519  0.00  0.00    -0.325 N 
ATOM      9  O   UNL     1     -32.708 -12.769  14.097  0.00  0.00    -0.270 OA
ATOM     10  H   UNL     1     -34.603 -11.297  16.307  0.00  0.00    +0.145 HD
ATOM     11  H   UNL     1     -35.097 -12.361  14.953  0.00  0.00    +0.145 HD
ENDBRANCH   6   7
BRANCH   4  12
ATOM     12  S   UNL     1     -28.489 -12.994  17.708  0.00  0.00    +0.059 S 
ATOM     13  O   UNL     1     -28.157 -13.954  16.602  0.00  0.00    -0.153 OA
ATOM     14  O   UNL     1     -27.255 -12.210  18.063  0.00  0.00    -0.153 OA
BRANCH  12  15
ATOM     15  N   UNL     1     -29.013 -13.884  19.109  0.00  0.00    -0.181 NA
ATOM     16  H   UNL     1     -30.019 -14.121  18.953  0.00  0.00    +0.149 HD
BRANCH  15  17
ATOM     17  C   UNL     1     -28.823 -13.096  20.346  0.00  0.00    +0.122 C 
ATOM     18  C   UNL     1     -28.430 -14.035  21.489  0.00  0.00    +0.032 C 
BRANCH  17  19
ATOM     19  C   UNL     1     -30.071 -12.313  20.704  0.00  0.00    +0.059 A 
ATOM     20  C   UNL     1     -30.036 -11.267  21.645  0.00  0.00    +0.025 A 
ATOM     21  C   UNL     1     -31.214 -10.585  21.957  0.00  0.00    +0.003 A 
ATOM     22  C   UNL     1     -32.412 -10.946  21.336  0.00  0.00    +0.020 A 
ATOM     23  C   UNL     1     -32.412 -11.989  20.407  0.00  0.00    +0.111 A 
ATOM     24  N   UNL     1     -31.256 -12.643  20.115  0.00  0.00    -0.258 NA
ENDBRANCH  17  19
ENDBRANCH  15  17
ENDBRANCH  12  15
ENDBRANCH   4  12
BRANCH   1  26
ATOM     25  C   UNL     1     -33.803  -8.703  16.828  0.00  0.00    +0.277 C 
ATOM     26  O   UNL     1     -32.906  -9.360  15.938  0.00  0.00    -0.494 OA
ENDBRANCH   1  26
TORSDOF 6
ENDMDL
MODEL 8
REMARK VINA RESULT:    -4.384      2.710      3.824
REMARK INTER + INTRA:          -7.199
REMARK INTER:                  -5.944
REMARK INTRA:                  -1.255
REMARK UNBOUND:                -1.277
REMARK  Name = 
REMARK  8 active torsions:
REMARK  status: ('A' for Active; 'I' for Inactive)
REMARK    1  A    between atoms: C_1  and  O_2
REMARK    2  A    between atoms: O_2  and  C_3
REMARK    3  A    between atoms: C_6  and  S_12
REMARK    4  A    between atoms: C_8  and  C_9
REMARK    5  A    between atoms: S_12  and  N_15
REMARK    6  A    between atoms: N_15  and  C_16
REMARK    7  A    between atoms: C_16  and  C_17
REMARK    8  A    between atoms: C_16  and  C_18
REMARK                            x       y       z     vdW  Elec       q    Type
REMARK                         _______ _______ _______ _____ _____    ______ ____
ROOT
ATOM      1  C   UNL     1     -30.354  -9.825  19.049  0.00  0.00    +0.132 A 
ATOM      2  C   UNL     1     -30.524  -9.728  17.653  0.00  0.00    +0.048 A 
ATOM      3  C   UNL     1     -30.333 -10.842  16.835  0.00  0.00    +0.032 A 
ATOM      4  C   UNL     1     -29.977 -12.073  17.393  0.00  0.00    +0.106 A 
ATOM      5  C   UNL     1     -29.820 -12.185  18.781  0.00  0.00    +0.045 A 
ATOM      6  C   UNL     1     -29.992 -11.069  19.618  0.00  0.00    +0.080 A 
ENDROOT
BRANCH   6   7
ATOM      7  C   UNL     1     -29.797 -11.213  21.083  0.00  0.00    +0.245 C 
ATOM      8  N   UNL     1     -29.379 -10.105  21.886  0.00  0.00    -0.325 N 
ATOM      9  O   UNL     1     -29.994 -12.327  21.637  0.00  0.00    -0.270 OA
ATOM     10  H   UNL     1     -29.317  -9.140  21.493  0.00  0.00    +0.145 HD
ATOM     11  H   UNL     1     -29.206 -10.236  22.906  0.00  0.00    +0.145 HD
ENDBRANCH   6   7
BRANCH   4  12
ATOM     12  S   UNL     1     -29.696 -13.478  16.362  0.00  0.00    +0.059 S 
ATOM     13  O   UNL     1     -28.300 -13.982  16.587  0.00  0.00    -0.153 OA
ATOM     14  O   UNL     1     -30.672 -14.572  16.699  0.00  0.00    -0.153 OA
BRANCH  12  15
ATOM     15  N   UNL     1     -29.893 -13.045  14.687  0.00  0.00    -0.181 NA
ATOM     16  H   UNL     1     -30.204 -12.048  14.672  0.00  0.00    +0.149 HD
BRANCH  15  17
ATOM     17  C   UNL     1     -30.866 -13.933  14.015  0.00  0.00    +0.122 C 
ATOM     18  C   UNL     1     -30.201 -14.586  12.801  0.00  0.00    +0.032 C 
BRANCH  17  19
ATOM     19  C   UNL     1     -32.113 -13.178  13.600  0.00  0.00    +0.059 A 
ATOM     20  C   UNL     1     -32.600 -13.235  12.281  0.00  0.00    +0.025 A 
ATOM     21  C   UNL     1     -33.743 -12.509  11.939  0.00  0.00    +0.003 A 
ATOM     22  C   UNL     1     -34.389 -11.734  12.904  0.00  0.00    +0.020 A 
ATOM     23  C   UNL     1     -33.879 -11.698  14.204  0.00  0.00    +0.111 A 
ATOM     24  N   UNL     1     -32.766 -12.411  14.520  0.00  0.00    -0.258 NA
ENDBRANCH  17  19
ENDBRANCH  15  17
ENDBRANCH  12  15
ENDBRANCH   4  12
BRANCH   1  26
ATOM     25  C   UNL     1     -31.685  -7.891  19.928  0.00  0.00    +0.277 C 
ATOM     26  O   UNL     1     -30.519  -8.709  19.887  0.00  0.00    -0.494 OA
ENDBRANCH   1  26
TORSDOF 6
ENDMDL
MODEL 9
REMARK VINA RESULT:    -4.355      2.319      4.893
REMARK INTER + INTRA:          -7.159
REMARK INTER:                  -5.757
REMARK INTRA:                  -1.402
REMARK UNBOUND:                -1.277
REMARK  Name = 
REMARK  8 active torsions:
REMARK  status: ('A' for Active; 'I' for Inactive)
REMARK    1  A    between atoms: C_1  and  O_2
REMARK    2  A    between atoms: O_2  and  C_3
REMARK    3  A    between atoms: C_6  and  S_12
REMARK    4  A    between atoms: C_8  and  C_9
REMARK    5  A    between atoms: S_12  and  N_15
REMARK    6  A    between atoms: N_15  and  C_16
REMARK    7  A    between atoms: C_16  and  C_17
REMARK    8  A    between atoms: C_16  and  C_18
REMARK                            x       y       z     vdW  Elec       q    Type
REMARK                         _______ _______ _______ _____ _____    ______ ____
ROOT
ATOM      1  C   UNL     1     -30.189 -14.085  14.337  0.00  0.00    +0.132 A 
ATOM      2  C   UNL     1     -31.063 -13.676  13.308  0.00  0.00    +0.048 A 
ATOM      3  C   UNL     1     -32.143 -12.837  13.586  0.00  0.00    +0.032 A 
ATOM      4  C   UNL     1     -32.367 -12.386  14.890  0.00  0.00    +0.106 A 
ATOM      5  C   UNL     1     -31.497 -12.774  15.917  0.00  0.00    +0.045 A 
ATOM      6  C   UNL     1     -30.413 -13.632  15.657  0.00  0.00    +0.080 A 
ENDROOT
BRANCH   6   7
ATOM      7  C   UNL     1     -29.520 -14.043  16.770  0.00  0.00    +0.245 C 
ATOM      8  N   UNL     1     -30.022 -14.794  17.881  0.00  0.00    -0.325 N 
ATOM      9  O   UNL     1     -28.301 -13.725  16.750  0.00  0.00    -0.270 OA
ATOM     10  H   UNL     1     -30.992 -15.179  17.885  0.00  0.00    +0.145 HD
ATOM     11  H   UNL     1     -29.389 -15.037  18.673  0.00  0.00    +0.145 HD
ENDBRANCH   6   7
BRANCH   4  12
ATOM     12  S   UNL     1     -33.753 -11.356  15.257  0.00  0.00    +0.059 S 
ATOM     13  O   UNL     1     -34.384 -10.905  13.971  0.00  0.00    -0.153 OA
ATOM     14  O   UNL     1     -34.770 -12.121  16.059  0.00  0.00    -0.153 OA
BRANCH  12  15
ATOM     15  N   UNL     1     -33.245  -9.965  16.172  0.00  0.00    -0.181 NA
ATOM     16  H   UNL     1     -32.208  -9.899  16.063  0.00  0.00    +0.149 HD
BRANCH  15  17
ATOM     17  C   UNL     1     -33.639 -10.086  17.593  0.00  0.00    +0.122 C 
ATOM     18  C   UNL     1     -34.091  -8.718  18.111  0.00  0.00    +0.032 C 
BRANCH  17  19
ATOM     19  C   UNL     1     -32.505 -10.629  18.440  0.00  0.00    +0.059 A 
ATOM     20  C   UNL     1     -32.701 -11.706  19.325  0.00  0.00    +0.025 A 
ATOM     21  C   UNL     1     -31.631 -12.161  20.099  0.00  0.00    +0.003 A 
ATOM     22  C   UNL     1     -30.383 -11.547  19.989  0.00  0.00    +0.020 A 
ATOM     23  C   UNL     1     -30.222 -10.480  19.102  0.00  0.00    +0.111 A 
ATOM     24  N   UNL     1     -31.273 -10.049  18.356  0.00  0.00    -0.258 NA
ENDBRANCH  17  19
ENDBRANCH  15  17
ENDBRANCH  12  15
ENDBRANCH   4  12
BRANCH   1  26
ATOM     25  C   UNL     1     -28.128 -14.740  13.069  0.00  0.00    +0.277 C 
ATOM     26  O   UNL     1     -29.109 -14.948  14.081  0.00  0.00    -0.494 OA
ENDBRANCH   1  26
TORSDOF 6
ENDMDL
