MODEL 1
REMARK VINA RESULT:    -5.233      0.000      0.000
REMARK INTER + INTRA:          -8.299
REMARK INTER:                  -7.222
REMARK INTRA:                  -1.077
REMARK UNBOUND:                -1.077
REMARK  Name = 
REMARK  8 active torsions:
REMARK  status: ('A' for Active; 'I' for Inactive)
REMARK    1  A    between atoms: C_1  and  C_2
REMARK    2  A    between atoms: C_2  and  C_4
REMARK    3  A    between atoms: C_7  and  N_10
REMARK    4  A    between atoms: C_11  and  C_13
REMARK    5  A    between atoms: C_13  and  C_14
REMARK    6  A    between atoms: C_14  and  C_15
REMARK    7  A    between atoms: C_14  and  C_18
REMARK    8  A    between atoms: C_15  and  O_17
REMARK                            x       y       z     vdW  Elec       q    Type
REMARK                         _______ _______ _______ _____ _____    ______ ____
ROOT
ATOM      1  N   UNL     1     -31.221 -12.235  18.804  0.00  0.00    -0.285 N 
ATOM      2  C   UNL     1     -31.933 -12.997  17.816  0.00  0.00    +0.218 C 
ATOM      3  O   UNL     1     -31.565 -14.167  17.521  0.00  0.00    -0.275 OA
ATOM      4  H   UNL     1     -31.713 -11.425  19.244  0.00  0.00    +0.155 HD
ENDROOT
BRANCH   1   8
ATOM      5  C   UNL     1     -27.296 -13.248  20.131  0.00  0.00    +0.017 A 
ATOM      6  C   UNL     1     -28.422 -13.625  20.887  0.00  0.00    +0.013 A 
ATOM      7  C   UNL     1     -29.712 -13.293  20.462  0.00  0.00    +0.024 A 
ATOM      8  C   UNL     1     -29.904 -12.564  19.277  0.00  0.00    +0.033 A 
ATOM      9  C   UNL     1     -28.789 -12.208  18.508  0.00  0.00    +0.024 A 
ATOM     10  C   UNL     1     -27.498 -12.538  18.932  0.00  0.00    +0.013 A 
BRANCH   5  12
ATOM     11  C   UNL     1     -25.687 -14.764  21.523  0.00  0.00    +0.091 C 
ATOM     12  C   UNL     1     -25.931 -13.608  20.597  0.00  0.00    +0.160 C 
ATOM     13  O   UNL     1     -24.938 -12.933  20.211  0.00  0.00    -0.292 OA
ENDBRANCH   5  12
ENDBRANCH   1   8
BRANCH   2  14
ATOM     14  C   UNL     1     -33.120 -12.401  17.116  0.00  0.00    +0.115 C 
BRANCH  14  15
ATOM     15  C   UNL     1     -32.688 -11.304  16.120  0.00  0.00    +0.136 C 
BRANCH  15  16
ATOM     16  C   UNL     1     -32.907 -11.742  14.686  0.00  0.00    -0.033 A 
ATOM     17  C   UNL     1     -34.157 -11.537  14.070  0.00  0.00    +0.004 A 
ATOM     18  C   UNL     1     -34.371 -11.942  12.749  0.00  0.00    +0.000 A 
ATOM     19  C   UNL     1     -33.346 -12.557  12.029  0.00  0.00    +0.000 A 
ATOM     20  C   UNL     1     -32.103 -12.771  12.628  0.00  0.00    +0.000 A 
ATOM     21  C   UNL     1     -31.882 -12.368  13.948  0.00  0.00    +0.004 A 
ENDBRANCH  15  16
BRANCH  15  22
ATOM     22  C   UNL     1     -33.386  -9.994  16.379  0.00  0.00    +0.313 C 
ATOM     23  O   UNL     1     -34.464  -9.957  17.033  0.00  0.00    -0.250 OA
BRANCH  22  24
ATOM     24  O   UNL     1     -32.846  -8.815  15.874  0.00  0.00    -0.480 OA
ATOM     25  H   UNL     1     -31.947  -8.477  16.194  0.00  0.00    +0.295 HD
ENDBRANCH  22  24
ENDBRANCH  15  22
ENDBRANCH  14  15
ENDBRANCH   2  14
TORSDOF 7
ENDMDL
MODEL 2
REMARK VINA RESULT:    -5.089      1.577      2.131
REMARK INTER + INTRA:          -8.100
REMARK INTER:                  -7.252
REMARK INTRA:                  -0.848
REMARK UNBOUND:                -1.077
REMARK  Name = 
REMARK  8 active torsions:
REMARK  status: ('A' for Active; 'I' for Inactive)
REMARK    1  A    between atoms: C_1  and  C_2
REMARK    2  A    between atoms: C_2  and  C_4
REMARK    3  A    between atoms: C_7  and  N_10
REMARK    4  A    between atoms: C_11  and  C_13
REMARK    5  A    between atoms: C_13  and  C_14
REMARK    6  A    between atoms: C_14  and  C_15
REMARK    7  A    between atoms: C_14  and  C_18
REMARK    8  A    between atoms: C_15  and  O_17
REMARK                            x       y       z     vdW  Elec       q    Type
REMARK                         _______ _______ _______ _____ _____    ______ ____
ROOT
ATOM      1  N   UNL     1     -29.974 -11.300  16.805  0.00  0.00    -0.285 N 
ATOM      2  C   UNL     1     -30.971 -10.273  16.922  0.00  0.00    +0.218 C 
ATOM      3  O   UNL     1     -31.200  -9.723  18.033  0.00  0.00    -0.275 OA
ATOM      4  H   UNL     1     -29.595 -11.508  15.854  0.00  0.00    +0.155 HD
ENDROOT
BRANCH   1   8
ATOM      5  C   UNL     1     -28.246 -13.421  20.076  0.00  0.00    +0.017 A 
ATOM      6  C   UNL     1     -29.587 -13.644  19.714  0.00  0.00    +0.013 A 
ATOM      7  C   UNL     1     -30.164 -12.949  18.646  0.00  0.00    +0.024 A 
ATOM      8  C   UNL     1     -29.413 -12.006  17.925  0.00  0.00    +0.033 A 
ATOM      9  C   UNL     1     -28.071 -11.799  18.265  0.00  0.00    +0.024 A 
ATOM     10  C   UNL     1     -27.493 -12.492  19.334  0.00  0.00    +0.013 A 
BRANCH   5  12
ATOM     11  C   UNL     1     -26.164 -14.283  21.398  0.00  0.00    +0.091 C 
ATOM     12  C   UNL     1     -27.648 -14.168  21.216  0.00  0.00    +0.160 C 
ATOM     13  O   UNL     1     -28.399 -14.726  22.062  0.00  0.00    -0.292 OA
ENDBRANCH   5  12
ENDBRANCH   1   8
BRANCH   2  14
ATOM     14  C   UNL     1     -31.762  -9.850  15.716  0.00  0.00    +0.115 C 
BRANCH  14  15
ATOM     15  C   UNL     1     -33.033 -10.708  15.553  0.00  0.00    +0.136 C 
BRANCH  15  16
ATOM     16  C   UNL     1     -32.956 -11.581  14.316  0.00  0.00    -0.033 A 
ATOM     17  C   UNL     1     -34.079 -11.716  13.479  0.00  0.00    +0.004 A 
ATOM     18  C   UNL     1     -34.021 -12.523  12.338  0.00  0.00    +0.000 A 
ATOM     19  C   UNL     1     -32.844 -13.205  12.022  0.00  0.00    +0.000 A 
ATOM     20  C   UNL     1     -31.723 -13.083  12.845  0.00  0.00    +0.000 A 
ATOM     21  C   UNL     1     -31.776 -12.278  13.986  0.00  0.00    +0.004 A 
ENDBRANCH  15  16
BRANCH  15  22
ATOM     22  C   UNL     1     -33.310 -11.552  16.771  0.00  0.00    +0.313 C 
ATOM     23  O   UNL     1     -33.151 -12.802  16.737  0.00  0.00    -0.250 OA
BRANCH  22  24
ATOM     24  O   UNL     1     -33.765 -10.947  17.938  0.00  0.00    -0.480 OA
ATOM     25  H   UNL     1     -33.115 -10.544  18.602  0.00  0.00    +0.295 HD
ENDBRANCH  22  24
ENDBRANCH  15  22
ENDBRANCH  14  15
ENDBRANCH   2  14
TORSDOF 7
ENDMDL
MODEL 3
REMARK VINA RESULT:    -4.528      2.801      6.201
REMARK INTER + INTRA:          -7.325
REMARK INTER:                  -6.156
REMARK INTRA:                  -1.170
REMARK UNBOUND:                -1.077
REMARK  Name = 
REMARK  8 active torsions:
REMARK  status: ('A' for Active; 'I' for Inactive)
REMARK    1  A    between atoms: C_1  and  C_2
REMARK    2  A    between atoms: C_2  and  C_4
REMARK    3  A    between atoms: C_7  and  N_10
REMARK    4  A    between atoms: C_11  and  C_13
REMARK    5  A    between atoms: C_13  and  C_14
REMARK    6  A    between atoms: C_14  and  C_15
REMARK    7  A    between atoms: C_14  and  C_18
REMARK    8  A    between atoms: C_15  and  O_17
REMARK                            x       y       z     vdW  Elec       q    Type
REMARK                         _______ _______ _______ _____ _____    ______ ____
ROOT
ATOM      1  N   UNL     1     -31.966 -12.831  17.686  0.00  0.00    -0.285 N 
ATOM      2  C   UNL     1     -32.184 -11.437  17.953  0.00  0.00    +0.218 C 
ATOM      3  O   UNL     1     -32.098 -10.585  17.027  0.00  0.00    -0.275 OA
ATOM      4  H   UNL     1     -32.340 -13.525  18.372  0.00  0.00    +0.155 HD
ENDROOT
BRANCH   1   8
ATOM      5  C   UNL     1     -30.006 -14.287  14.189  0.00  0.00    +0.017 A 
ATOM      6  C   UNL     1     -31.118 -13.431  14.077  0.00  0.00    +0.013 A 
ATOM      7  C   UNL     1     -31.770 -12.953  15.218  0.00  0.00    +0.024 A 
ATOM      8  C   UNL     1     -31.331 -13.332  16.497  0.00  0.00    +0.033 A 
ATOM      9  C   UNL     1     -30.210 -14.162  16.615  0.00  0.00    +0.024 A 
ATOM     10  C   UNL     1     -29.558 -14.643  15.475  0.00  0.00    +0.013 A 
BRANCH   5  12
ATOM     11  C   UNL     1     -27.839 -14.981  12.907  0.00  0.00    +0.091 C 
ATOM     12  C   UNL     1     -29.325 -14.787  12.965  0.00  0.00    +0.160 C 
ATOM     13  O   UNL     1     -30.004 -15.062  11.938  0.00  0.00    -0.292 OA
ENDBRANCH   5  12
ENDBRANCH   1   8
BRANCH   2  14
ATOM     14  C   UNL     1     -32.508 -10.978  19.347  0.00  0.00    +0.115 C 
BRANCH  14  15
ATOM     15  C   UNL     1     -31.273 -10.357  20.031  0.00  0.00    +0.136 C 
BRANCH  15  16
ATOM     16  C   UNL     1     -30.037 -11.211  19.823  0.00  0.00    -0.033 A 
ATOM     17  C   UNL     1     -29.104 -10.869  18.826  0.00  0.00    +0.004 A 
ATOM     18  C   UNL     1     -27.964 -11.653  18.623  0.00  0.00    +0.000 A 
ATOM     19  C   UNL     1     -27.744 -12.787  19.409  0.00  0.00    +0.000 A 
ATOM     20  C   UNL     1     -28.663 -13.140  20.399  0.00  0.00    +0.000 A 
ATOM     21  C   UNL     1     -29.804 -12.359  20.606  0.00  0.00    +0.004 A 
ENDBRANCH  15  16
BRANCH  15  22
ATOM     22  C   UNL     1     -31.015  -8.946  19.567  0.00  0.00    +0.313 C 
ATOM     23  O   UNL     1     -30.182  -8.214  20.167  0.00  0.00    -0.250 OA
BRANCH  22  24
ATOM     24  O   UNL     1     -31.719  -8.440  18.479  0.00  0.00    -0.480 OA
ATOM     25  H   UNL     1     -32.030  -9.050  17.732  0.00  0.00    +0.295 HD
ENDBRANCH  22  24
ENDBRANCH  15  22
ENDBRANCH  14  15
ENDBRANCH   2  14
TORSDOF 7
ENDMDL
MODEL 4
REMARK VINA RESULT:    -4.437      2.285      7.415
REMARK INTER + INTRA:          -7.199
REMARK INTER:                  -6.109
REMARK INTRA:                  -1.091
REMARK UNBOUND:                -1.077
REMARK  Name = 
REMARK  8 active torsions:
REMARK  status: ('A' for Active; 'I' for Inactive)
REMARK    1  A    between atoms: C_1  and  C_2
REMARK    2  A    between atoms: C_2  and  C_4
REMARK    3  A    between atoms: C_7  and  N_10
REMARK    4  A    between atoms: C_11  and  C_13
REMARK    5  A    between atoms: C_13  and  C_14
REMARK    6  A    between atoms: C_14  and  C_15
REMARK    7  A    between atoms: C_14  and  C_18
REMARK    8  A    between atoms: C_15  and  O_17
REMARK                            x       y       z     vdW  Elec       q    Type
REMARK                         _______ _______ _______ _____ _____    ______ ____
ROOT
ATOM      1  N   UNL     1     -29.552 -10.772  17.382  0.00  0.00    -0.285 N 
ATOM      2  C   UNL     1     -28.902 -11.909  17.973  0.00  0.00    +0.218 C 
ATOM      3  O   UNL     1     -29.099 -13.068  17.518  0.00  0.00    -0.275 OA
ATOM      4  H   UNL     1     -29.144  -9.827  17.564  0.00  0.00    +0.155 HD
ENDROOT
BRANCH   1   8
ATOM      5  C   UNL     1     -32.956 -11.032  14.826  0.00  0.00    +0.017 A 
ATOM      6  C   UNL     1     -31.954 -12.019  14.779  0.00  0.00    +0.013 A 
ATOM      7  C   UNL     1     -30.832 -11.940  15.610  0.00  0.00    +0.024 A 
ATOM      8  C   UNL     1     -30.682 -10.862  16.497  0.00  0.00    +0.033 A 
ATOM      9  C   UNL     1     -31.687  -9.890  16.566  0.00  0.00    +0.024 A 
ATOM     10  C   UNL     1     -32.809  -9.967  15.736  0.00  0.00    +0.013 A 
BRANCH   5  12
ATOM     11  C   UNL     1     -34.289 -12.235  12.929  0.00  0.00    +0.091 C 
ATOM     12  C   UNL     1     -34.143 -11.131  13.935  0.00  0.00    +0.160 C 
ATOM     13  O   UNL     1     -35.061 -10.271  14.017  0.00  0.00    -0.292 OA
ENDBRANCH   5  12
ENDBRANCH   1   8
BRANCH   2  14
ATOM     14  C   UNL     1     -27.988 -11.726  19.150  0.00  0.00    +0.115 C 
BRANCH  14  15
ATOM     15  C   UNL     1     -28.718 -12.023  20.476  0.00  0.00    +0.136 C 
BRANCH  15  16
ATOM     16  C   UNL     1     -30.162 -11.563  20.426  0.00  0.00    -0.033 A 
ATOM     17  C   UNL     1     -30.480 -10.213  20.663  0.00  0.00    +0.004 A 
ATOM     18  C   UNL     1     -31.809  -9.779  20.624  0.00  0.00    +0.000 A 
ATOM     19  C   UNL     1     -32.835 -10.687  20.352  0.00  0.00    +0.000 A 
ATOM     20  C   UNL     1     -32.535 -12.030  20.118  0.00  0.00    +0.000 A 
ATOM     21  C   UNL     1     -31.208 -12.469  20.155  0.00  0.00    +0.004 A 
ENDBRANCH  15  16
BRANCH  15  22
ATOM     22  C   UNL     1     -28.647 -13.480  20.852  0.00  0.00    +0.313 C 
ATOM     23  O   UNL     1     -28.722 -13.838  22.059  0.00  0.00    -0.250 OA
BRANCH  22  24
ATOM     24  O   UNL     1     -28.476 -14.439  19.858  0.00  0.00    -0.480 OA
ATOM     25  H   UNL     1     -29.030 -14.414  19.011  0.00  0.00    +0.295 HD
ENDBRANCH  22  24
ENDBRANCH  15  22
ENDBRANCH  14  15
ENDBRANCH   2  14
TORSDOF 7
ENDMDL
MODEL 5
REMARK VINA RESULT:    -4.373      2.447      7.287
REMARK INTER + INTRA:          -7.111
REMARK INTER:                  -6.336
REMARK INTRA:                  -0.775
REMARK UNBOUND:                -1.077
REMARK  Name = 
REMARK  8 active torsions:
REMARK  status: ('A' for Active; 'I' for Inactive)
REMARK    1  A    between atoms: C_1  and  C_2
REMARK    2  A    between atoms: C_2  and  C_4
REMARK    3  A    between atoms: C_7  and  N_10
REMARK    4  A    between atoms: C_11  and  C_13
REMARK    5  A    between atoms: C_13  and  C_14
REMARK    6  A    between atoms: C_14  and  C_15
REMARK    7  A    between atoms: C_14  and  C_18
REMARK    8  A    between atoms: C_15  and  O_17
REMARK                            x       y       z     vdW  Elec       q    Type
REMARK                         _______ _______ _______ _____ _____    ______ ____
ROOT
ATOM      1  N   UNL     1     -32.283 -10.559  17.846  0.00  0.00    -0.285 N 
ATOM      2  C   UNL     1     -32.230 -11.432  18.986  0.00  0.00    +0.218 C 
ATOM      3  O   UNL     1     -32.208 -12.684  18.834  0.00  0.00    -0.275 OA
ATOM      4  H   UNL     1     -31.991  -9.565  17.979  0.00  0.00    +0.155 HD
ENDROOT
BRANCH   1   8
ATOM      5  C   UNL     1     -33.388 -11.896  13.950  0.00  0.00    +0.017 A 
ATOM      6  C   UNL     1     -32.033 -11.714  14.282  0.00  0.00    +0.013 A 
ATOM      7  C   UNL     1     -31.662 -11.272  15.555  0.00  0.00    +0.024 A 
ATOM      8  C   UNL     1     -32.640 -10.988  16.521  0.00  0.00    +0.033 A 
ATOM      9  C   UNL     1     -33.989 -11.190  16.205  0.00  0.00    +0.024 A 
ATOM     10  C   UNL     1     -34.363 -11.632  14.932  0.00  0.00    +0.013 A 
BRANCH   5  12
ATOM     11  C   UNL     1     -33.087 -13.533  11.938  0.00  0.00    +0.091 C 
ATOM     12  C   UNL     1     -33.767 -12.366  12.591  0.00  0.00    +0.160 C 
ATOM     13  O   UNL     1     -34.685 -11.777  11.957  0.00  0.00    -0.292 OA
ENDBRANCH   5  12
ENDBRANCH   1   8
BRANCH   2  14
ATOM     14  C   UNL     1     -32.213 -10.859  20.374  0.00  0.00    +0.115 C 
BRANCH  14  15
ATOM     15  C   UNL     1     -30.875 -10.151  20.669  0.00  0.00    +0.136 C 
BRANCH  15  16
ATOM     16  C   UNL     1     -29.700 -10.940  20.124  0.00  0.00    -0.033 A 
ATOM     17  C   UNL     1     -29.113 -10.571  18.899  0.00  0.00    +0.004 A 
ATOM     18  C   UNL     1     -28.033 -11.295  18.385  0.00  0.00    +0.000 A 
ATOM     19  C   UNL     1     -27.529 -12.394  19.083  0.00  0.00    +0.000 A 
ATOM     20  C   UNL     1     -28.104 -12.773  20.298  0.00  0.00    +0.000 A 
ATOM     21  C   UNL     1     -29.184 -12.053  20.817  0.00  0.00    +0.004 A 
ENDBRANCH  15  16
BRANCH  15  22
ATOM     22  C   UNL     1     -30.848  -8.740  20.138  0.00  0.00    +0.313 C 
ATOM     23  O   UNL     1     -31.691  -8.359  19.282  0.00  0.00    -0.250 OA
BRANCH  22  24
ATOM     24  O   UNL     1     -29.871  -7.856  20.584  0.00  0.00    -0.480 OA
ATOM     25  H   UNL     1     -29.062  -8.190  21.094  0.00  0.00    +0.295 HD
ENDBRANCH  22  24
ENDBRANCH  15  22
ENDBRANCH  14  15
ENDBRANCH   2  14
TORSDOF 7
ENDMDL
MODEL 6
REMARK VINA RESULT:    -4.259      3.521      5.311
REMARK INTER + INTRA:          -6.954
REMARK INTER:                  -6.296
REMARK INTRA:                  -0.658
REMARK UNBOUND:                -1.077
REMARK  Name = 
REMARK  8 active torsions:
REMARK  status: ('A' for Active; 'I' for Inactive)
REMARK    1  A    between atoms: C_1  and  C_2
REMARK    2  A    between atoms: C_2  and  C_4
REMARK    3  A    between atoms: C_7  and  N_10
REMARK    4  A    between atoms: C_11  and  C_13
REMARK    5  A    between atoms: C_13  and  C_14
REMARK    6  A    between atoms: C_14  and  C_15
REMARK    7  A    between atoms: C_14  and  C_18
REMARK    8  A    between atoms: C_15  and  O_17
REMARK                            x       y       z     vdW  Elec       q    Type
REMARK                         _______ _______ _______ _____ _____    ______ ____
ROOT
ATOM      1  N   UNL     1     -32.014 -11.156  17.195  0.00  0.00    -0.285 N 
ATOM      2  C   UNL     1     -32.217 -12.518  17.603  0.00  0.00    +0.218 C 
ATOM      3  O   UNL     1     -32.445 -12.798  18.811  0.00  0.00    -0.275 OA
ATOM      4  H   UNL     1     -32.138 -10.926  16.183  0.00  0.00    +0.155 HD
ENDROOT
BRANCH   1   8
ATOM      5  C   UNL     1     -31.141  -8.020  19.950  0.00  0.00    +0.017 A 
ATOM      6  C   UNL     1     -32.347  -8.016  19.226  0.00  0.00    +0.013 A 
ATOM      7  C   UNL     1     -32.640  -9.037  18.317  0.00  0.00    +0.024 A 
ATOM      8  C   UNL     1     -31.724 -10.080  18.102  0.00  0.00    +0.033 A 
ATOM      9  C   UNL     1     -30.533 -10.103  18.838  0.00  0.00    +0.024 A 
ATOM     10  C   UNL     1     -30.238  -9.082  19.746  0.00  0.00    +0.013 A 
BRANCH   5  12
ATOM     11  C   UNL     1     -31.871  -6.426  21.886  0.00  0.00    +0.091 C 
ATOM     12  C   UNL     1     -30.844  -6.926  20.913  0.00  0.00    +0.160 C 
ATOM     13  O   UNL     1     -29.701  -6.393  20.923  0.00  0.00    -0.292 OA
ENDBRANCH   5  12
ENDBRANCH   1   8
BRANCH   2  14
ATOM     14  C   UNL     1     -32.147 -13.627  16.592  0.00  0.00    +0.115 C 
BRANCH  14  15
ATOM     15  C   UNL     1     -30.764 -14.308  16.604  0.00  0.00    +0.136 C 
BRANCH  15  16
ATOM     16  C   UNL     1     -30.180 -14.400  15.208  0.00  0.00    -0.033 A 
ATOM     17  C   UNL     1     -30.909 -13.912  14.107  0.00  0.00    +0.004 A 
ATOM     18  C   UNL     1     -30.382 -13.997  12.814  0.00  0.00    +0.000 A 
ATOM     19  C   UNL     1     -29.127 -14.571  12.605  0.00  0.00    +0.000 A 
ATOM     20  C   UNL     1     -28.394 -15.062  13.688  0.00  0.00    +0.000 A 
ATOM     21  C   UNL     1     -28.915 -14.980  14.982  0.00  0.00    +0.004 A 
ENDBRANCH  15  16
BRANCH  15  22
ATOM     22  C   UNL     1     -29.797 -13.616  17.530  0.00  0.00    +0.313 C 
ATOM     23  O   UNL     1     -29.275 -12.514  17.208  0.00  0.00    -0.250 OA
BRANCH  22  24
ATOM     24  O   UNL     1     -29.461 -14.208  18.743  0.00  0.00    -0.480 OA
ATOM     25  H   UNL     1     -30.043 -14.079  19.563  0.00  0.00    +0.295 HD
ENDBRANCH  22  24
ENDBRANCH  15  22
ENDBRANCH  14  15
ENDBRANCH   2  14
TORSDOF 7
ENDMDL
MODEL 7
REMARK VINA RESULT:    -4.117      3.774      5.686
REMARK INTER + INTRA:          -6.759
REMARK INTER:                  -5.858
REMARK INTRA:                  -0.901
REMARK UNBOUND:                -1.077
REMARK  Name = 
REMARK  8 active torsions:
REMARK  status: ('A' for Active; 'I' for Inactive)
REMARK    1  A    between atoms: C_1  and  C_2
REMARK    2  A    between atoms: C_2  and  C_4
REMARK    3  A    between atoms: C_7  and  N_10
REMARK    4  A    between atoms: C_11  and  C_13
REMARK    5  A    between atoms: C_13  and  C_14
REMARK    6  A    between atoms: C_14  and  C_15
REMARK    7  A    between atoms: C_14  and  C_18
REMARK    8  A    between atoms: C_15  and  O_17
REMARK                            x       y       z     vdW  Elec       q    Type
REMARK                         _______ _______ _______ _____ _____    ______ ____
ROOT
ATOM      1  N   UNL     1     -30.965 -10.481  18.144  0.00  0.00    -0.285 N 
ATOM      2  C   UNL     1     -30.568 -10.451  16.764  0.00  0.00    +0.218 C 
ATOM      3  O   UNL     1     -30.242  -9.364  16.213  0.00  0.00    -0.275 OA
ATOM      4  H   UNL     1     -30.926 -11.397  18.644  0.00  0.00    +0.155 HD
ENDROOT
BRANCH   1   8
ATOM      5  C   UNL     1     -32.091  -6.980  20.304  0.00  0.00    +0.017 A 
ATOM      6  C   UNL     1     -30.892  -7.651  20.611  0.00  0.00    +0.013 A 
ATOM      7  C   UNL     1     -30.518  -8.802  19.912  0.00  0.00    +0.024 A 
ATOM      8  C   UNL     1     -31.342  -9.315  18.897  0.00  0.00    +0.033 A 
ATOM      9  C   UNL     1     -32.523  -8.639  18.570  0.00  0.00    +0.024 A 
ATOM     10  C   UNL     1     -32.900  -7.488  19.269  0.00  0.00    +0.013 A 
BRANCH   5  12
ATOM     11  C   UNL     1     -33.902  -5.457  21.410  0.00  0.00    +0.091 C 
ATOM     12  C   UNL     1     -32.475  -5.757  21.059  0.00  0.00    +0.160 C 
ATOM     13  O   UNL     1     -31.585  -4.939  21.421  0.00  0.00    -0.292 OA
ENDBRANCH   5  12
ENDBRANCH   1   8
BRANCH   2  14
ATOM     14  C   UNL     1     -30.549 -11.719  15.958  0.00  0.00    +0.115 C 
BRANCH  14  15
ATOM     15  C   UNL     1     -31.933 -12.399  15.954  0.00  0.00    +0.136 C 
BRANCH  15  16
ATOM     16  C   UNL     1     -32.505 -12.480  14.552  0.00  0.00    -0.033 A 
ATOM     17  C   UNL     1     -31.731 -13.016  13.506  0.00  0.00    +0.004 A 
ATOM     18  C   UNL     1     -32.247 -13.091  12.209  0.00  0.00    +0.000 A 
ATOM     19  C   UNL     1     -33.537 -12.630  11.940  0.00  0.00    +0.000 A 
ATOM     20  C   UNL     1     -34.316 -12.093  12.967  0.00  0.00    +0.000 A 
ATOM     21  C   UNL     1     -33.805 -12.016  14.266  0.00  0.00    +0.004 A 
ENDBRANCH  15  16
BRANCH  15  22
ATOM     22  C   UNL     1     -31.896 -13.768  16.583  0.00  0.00    +0.313 C 
ATOM     23  O   UNL     1     -31.156 -14.674  16.110  0.00  0.00    -0.250 OA
BRANCH  22  24
ATOM     24  O   UNL     1     -32.700 -14.041  17.685  0.00  0.00    -0.480 OA
ATOM     25  H   UNL     1     -33.355 -14.814  17.671  0.00  0.00    +0.295 HD
ENDBRANCH  22  24
ENDBRANCH  15  22
ENDBRANCH  14  15
ENDBRANCH   2  14
TORSDOF 7
ENDMDL
MODEL 8
REMARK VINA RESULT:    -4.115      3.427      7.148
REMARK INTER + INTRA:          -6.755
REMARK INTER:                  -5.662
REMARK INTRA:                  -1.093
REMARK UNBOUND:                -1.077
REMARK  Name = 
REMARK  8 active torsions:
REMARK  status: ('A' for Active; 'I' for Inactive)
REMARK    1  A    between atoms: C_1  and  C_2
REMARK    2  A    between atoms: C_2  and  C_4
REMARK    3  A    between atoms: C_7  and  N_10
REMARK    4  A    between atoms: C_11  and  C_13
REMARK    5  A    between atoms: C_13  and  C_14
REMARK    6  A    between atoms: C_14  and  C_15
REMARK    7  A    between atoms: C_14  and  C_18
REMARK    8  A    between atoms: C_15  and  O_17
REMARK                            x       y       z     vdW  Elec       q    Type
REMARK                         _______ _______ _______ _____ _____    ______ ____
ROOT
ATOM      1  N   UNL     1     -29.803  -9.647  19.631  0.00  0.00    -0.285 N 
ATOM      2  C   UNL     1     -29.187 -10.213  18.464  0.00  0.00    +0.218 C 
ATOM      3  O   UNL     1     -29.460  -9.770  17.315  0.00  0.00    -0.275 OA
ATOM      4  H   UNL     1     -29.342  -9.809  20.555  0.00  0.00    +0.155 HD
ENDROOT
BRANCH   1   8
ATOM      5  C   UNL     1     -33.273  -7.168  19.617  0.00  0.00    +0.017 A 
ATOM      6  C   UNL     1     -33.269  -8.389  18.919  0.00  0.00    +0.013 A 
ATOM      7  C   UNL     1     -32.134  -9.206  18.914  0.00  0.00    +0.024 A 
ATOM      8  C   UNL     1     -30.973  -8.812  19.597  0.00  0.00    +0.033 A 
ATOM      9  C   UNL     1     -30.979  -7.610  20.314  0.00  0.00    +0.024 A 
ATOM     10  C   UNL     1     -32.112  -6.791  20.319  0.00  0.00    +0.013 A 
BRANCH   5  12
ATOM     11  C   UNL     1     -35.062  -5.739  20.874  0.00  0.00    +0.091 C 
ATOM     12  C   UNL     1     -34.488  -6.310  19.611  0.00  0.00    +0.160 C 
ATOM     13  O   UNL     1     -35.062  -6.044  18.520  0.00  0.00    -0.292 OA
ENDBRANCH   5  12
ENDBRANCH   1   8
BRANCH   2  14
ATOM     14  C   UNL     1     -28.214 -11.350  18.602  0.00  0.00    +0.115 C 
BRANCH  14  15
ATOM     15  C   UNL     1     -28.922 -12.636  19.076  0.00  0.00    +0.136 C 
BRANCH  15  16
ATOM     16  C   UNL     1     -29.639 -13.327  17.932  0.00  0.00    -0.033 A 
ATOM     17  C   UNL     1     -28.951 -13.603  16.735  0.00  0.00    +0.004 A 
ATOM     18  C   UNL     1     -29.604 -14.234  15.672  0.00  0.00    +0.000 A 
ATOM     19  C   UNL     1     -30.948 -14.595  15.789  0.00  0.00    +0.000 A 
ATOM     20  C   UNL     1     -31.643 -14.324  16.970  0.00  0.00    +0.000 A 
ATOM     21  C   UNL     1     -30.996 -13.693  18.035  0.00  0.00    +0.004 A 
ENDBRANCH  15  16
BRANCH  15  22
ATOM     22  C   UNL     1     -27.973 -13.592  19.751  0.00  0.00    +0.313 C 
ATOM     23  O   UNL     1     -26.745 -13.591  19.462  0.00  0.00    -0.250 OA
BRANCH  22  24
ATOM     24  O   UNL     1     -28.460 -14.498  20.688  0.00  0.00    -0.480 OA
ATOM     25  H   UNL     1     -28.602 -15.471  20.445  0.00  0.00    +0.295 HD
ENDBRANCH  22  24
ENDBRANCH  15  22
ENDBRANCH  14  15
ENDBRANCH   2  14
TORSDOF 7
ENDMDL
MODEL 9
REMARK VINA RESULT:    -4.073      3.340      5.001
REMARK INTER + INTRA:          -6.697
REMARK INTER:                  -5.350
REMARK INTRA:                  -1.347
REMARK UNBOUND:                -1.077
REMARK  Name = 
REMARK  8 active torsions:
REMARK  status: ('A' for Active; 'I' for Inactive)
REMARK    1  A    between atoms: C_1  and  C_2
REMARK    2  A    between atoms: C_2  and  C_4
REMARK    3  A    between atoms: C_7  and  N_10
REMARK    4  A    between atoms: C_11  and  C_13
REMARK    5  A    between atoms: C_13  and  C_14
REMARK    6  A    between atoms: C_14  and  C_15
REMARK    7  A    between atoms: C_14  and  C_18
REMARK    8  A    between atoms: C_15  and  O_17
REMARK                            x       y       z     vdW  Elec       q    Type
REMARK                         _______ _______ _______ _____ _____    ______ ____
ROOT
ATOM      1  N   UNL     1     -31.282 -12.535  19.424  0.00  0.00    -0.285 N 
ATOM      2  C   UNL     1     -30.328 -13.207  18.587  0.00  0.00    +0.218 C 
ATOM      3  O   UNL     1     -29.174 -12.728  18.417  0.00  0.00    -0.275 OA
ATOM      4  H   UNL     1     -32.088 -13.089  19.790  0.00  0.00    +0.155 HD
ENDROOT
BRANCH   1   8
ATOM      5  C   UNL     1     -30.852  -8.463  20.619  0.00  0.00    +0.017 A 
ATOM      6  C   UNL     1     -30.556  -9.503  21.519  0.00  0.00    +0.013 A 
ATOM      7  C   UNL     1     -30.699 -10.841  21.138  0.00  0.00    +0.024 A 
ATOM      8  C   UNL     1     -31.154 -11.167  19.850  0.00  0.00    +0.033 A 
ATOM      9  C   UNL     1     -31.427 -10.137  18.942  0.00  0.00    +0.024 A 
ATOM     10  C   UNL     1     -31.286  -8.799  19.322  0.00  0.00    +0.013 A 
BRANCH   5  12
ATOM     11  C   UNL     1     -31.744  -6.338  21.849  0.00  0.00    +0.091 C 
ATOM     12  C   UNL     1     -30.696  -7.045  21.041  0.00  0.00    +0.160 C 
ATOM     13  O   UNL     1     -29.657  -6.406  20.719  0.00  0.00    -0.292 OA
ENDBRANCH   5  12
ENDBRANCH   1   8
BRANCH   2  14
ATOM     14  C   UNL     1     -30.704 -14.485  17.894  0.00  0.00    +0.115 C 
BRANCH  14  15
ATOM     15  C   UNL     1     -30.848 -14.275  16.372  0.00  0.00    +0.136 C 
BRANCH  15  16
ATOM     16  C   UNL     1     -31.571 -12.979  16.060  0.00  0.00    -0.033 A 
ATOM     17  C   UNL     1     -32.945 -12.855  16.340  0.00  0.00    +0.004 A 
ATOM     18  C   UNL     1     -33.623 -11.667  16.051  0.00  0.00    +0.000 A 
ATOM     19  C   UNL     1     -32.941 -10.592  15.479  0.00  0.00    +0.000 A 
ATOM     20  C   UNL     1     -31.579 -10.702  15.192  0.00  0.00    +0.000 A 
ATOM     21  C   UNL     1     -30.896 -11.887  15.479  0.00  0.00    +0.004 A 
ENDBRANCH  15  16
BRANCH  15  22
ATOM     22  C   UNL     1     -29.518 -14.314  15.664  0.00  0.00    +0.313 C 
ATOM     23  O   UNL     1     -29.462 -14.359  14.405  0.00  0.00    -0.250 OA
BRANCH  22  24
ATOM     24  O   UNL     1     -28.342 -14.321  16.407  0.00  0.00    -0.480 OA
ATOM     25  H   UNL     1     -28.368 -14.293  17.419  0.00  0.00    +0.295 HD
ENDBRANCH  22  24
ENDBRANCH  15  22
ENDBRANCH  14  15
ENDBRANCH   2  14
TORSDOF 7
ENDMDL
