MODEL 1
REMARK VINA RESULT:    -4.780      0.000      0.000
REMARK INTER + INTRA:          -9.978
REMARK INTER:                  -6.876
REMARK INTRA:                  -3.102
REMARK UNBOUND:                -3.102
REMARK  Name = 
REMARK  9 active torsions:
REMARK  status: ('A' for Active; 'I' for Inactive)
REMARK    1  A    between atoms: C_1  and  O_2
REMARK    2  A    between atoms: O_2  and  C_3
REMARK    3  A    between atoms: C_7  and  C_12
REMARK    4  A    between atoms: C_12  and  C_13
REMARK    5  A    between atoms: N_15  and  C_16
REMARK    6  A    between atoms: C_16  and  C_17
REMARK    7  A    between atoms: C_16  and  C_21
REMARK    8  A    between atoms: C_17  and  C_18
REMARK    9  A    between atoms: C_18  and  O_20
REMARK                            x       y       z     vdW  Elec       q    Type
REMARK                         _______ _______ _______ _____ _____    ______ ____
ROOT
ATOM      1  C   UNL     1     -31.639 -11.935  20.036  0.00  0.00    +0.218 C 
ATOM      2  O   UNL     1     -32.813 -12.231  20.388  0.00  0.00    -0.275 OA
ATOM      3  N   UNL     1     -31.372 -10.715  19.323  0.00  0.00    -0.308 N 
ATOM      4  H   UNL     1     -30.377 -10.415  19.220  0.00  0.00    +0.149 HD
ENDROOT
BRANCH   1   5
ATOM      5  C   UNL     1     -30.525 -12.892  20.331  0.00  0.00    +0.134 C 
BRANCH   5  10
ATOM      6  C   UNL     1     -30.230 -14.563  15.281  0.00  0.00    +0.124 A 
ATOM      7  C   UNL     1     -31.393 -14.466  16.080  0.00  0.00    +0.046 A 
ATOM      8  C   UNL     1     -31.327 -13.973  17.396  0.00  0.00    +0.015 A 
ATOM      9  C   UNL     1     -30.081 -13.584  17.881  0.00  0.00    +0.024 A 
ATOM     10  C   UNL     1     -29.687 -13.085  19.105  0.00  0.00    +0.007 A 
ATOM     11  C   UNL     1     -28.309 -12.924  19.005  0.00  0.00    +0.200 A 
ATOM     12  O   UNL     1     -27.898 -13.280  17.801  0.00  0.00    -0.463 OA
ATOM     13  C   UNL     1     -28.947 -13.679  17.120  0.00  0.00    +0.139 A 
ATOM     14  C   UNL     1     -28.980 -14.160  15.814  0.00  0.00    +0.092 A 
BRANCH   6  16
ATOM     15  C   UNL     1     -30.425 -14.250  12.810  0.00  0.00    +0.277 C 
ATOM     16  O   UNL     1     -30.361 -15.062  13.977  0.00  0.00    -0.495 OA
ENDBRANCH   6  16
ENDBRANCH   5  10
ENDBRANCH   1   5
BRANCH   3  17
ATOM     17  C   UNL     1     -32.396  -9.884  18.668  0.00  0.00    +0.114 C 
BRANCH  17  18
ATOM     18  C   UNL     1     -32.668 -10.318  17.226  0.00  0.00    -0.027 A 
ATOM     19  C   UNL     1     -31.645 -10.228  16.258  0.00  0.00    +0.005 A 
ATOM     20  C   UNL     1     -31.848 -10.686  14.953  0.00  0.00    +0.000 A 
ATOM     21  C   UNL     1     -33.060 -11.278  14.601  0.00  0.00    +0.000 A 
ATOM     22  C   UNL     1     -34.064 -11.432  15.558  0.00  0.00    +0.000 A 
ATOM     23  C   UNL     1     -33.866 -10.975  16.865  0.00  0.00    +0.005 A 
ENDBRANCH  17  18
BRANCH  17  24
ATOM     24  C   UNL     1     -32.080  -8.382  18.891  0.00  0.00    +0.147 C 
BRANCH  24  25
ATOM     25  C   UNL     1     -31.108  -8.110  20.003  0.00  0.00    +0.307 C 
ATOM     26  O   UNL     1     -31.478  -7.456  21.015  0.00  0.00    -0.251 OA
BRANCH  25  27
ATOM     27  O   UNL     1     -29.798  -8.570  19.919  0.00  0.00    -0.481 OA
ATOM     28  H   UNL     1     -29.253  -8.739  20.756  0.00  0.00    +0.295 HD
ENDBRANCH  25  27
ENDBRANCH  24  25
ENDBRANCH  17  24
ENDBRANCH   3  17
TORSDOF 8
ENDMDL
MODEL 2
REMARK VINA RESULT:    -4.539      2.226      5.190
REMARK INTER + INTRA:          -9.631
REMARK INTER:                  -8.014
REMARK INTRA:                  -1.617
REMARK UNBOUND:                -3.102
REMARK  Name = 
REMARK  9 active torsions:
REMARK  status: ('A' for Active; 'I' for Inactive)
REMARK    1  A    between atoms: C_1  and  O_2
REMARK    2  A    between atoms: O_2  and  C_3
REMARK    3  A    between atoms: C_7  and  C_12
REMARK    4  A    between atoms: C_12  and  C_13
REMARK    5  A    between atoms: N_15  and  C_16
REMARK    6  A    between atoms: C_16  and  C_17
REMARK    7  A    between atoms: C_16  and  C_21
REMARK    8  A    between atoms: C_17  and  C_18
REMARK    9  A    between atoms: C_18  and  O_20
REMARK                            x       y       z     vdW  Elec       q    Type
REMARK                         _______ _______ _______ _____ _____    ______ ____
ROOT
ATOM      1  C   UNL     1     -30.786 -10.684  16.651  0.00  0.00    +0.218 C 
ATOM      2  O   UNL     1     -30.228  -9.838  15.900  0.00  0.00    -0.275 OA
ATOM      3  N   UNL     1     -30.960 -12.045  16.220  0.00  0.00    -0.308 N 
ATOM      4  H   UNL     1     -31.248 -12.752  16.933  0.00  0.00    +0.149 HD
ENDROOT
BRANCH   1   5
ATOM      5  C   UNL     1     -31.307 -10.245  17.984  0.00  0.00    +0.134 C 
BRANCH   5  10
ATOM      6  C   UNL     1     -27.726 -13.421  20.322  0.00  0.00    +0.124 A 
ATOM      7  C   UNL     1     -27.471 -12.403  19.373  0.00  0.00    +0.046 A 
ATOM      8  C   UNL     1     -28.518 -11.614  18.862  0.00  0.00    +0.015 A 
ATOM      9  C   UNL     1     -29.808 -11.870  19.320  0.00  0.00    +0.024 A 
ATOM     10  C   UNL     1     -31.024 -11.299  19.010  0.00  0.00    +0.007 A 
ATOM     11  C   UNL     1     -31.959 -12.004  19.760  0.00  0.00    +0.200 A 
ATOM     12  O   UNL     1     -31.353 -12.925  20.488  0.00  0.00    -0.463 OA
ATOM     13  C   UNL     1     -30.067 -12.858  20.232  0.00  0.00    +0.139 A 
ATOM     14  C   UNL     1     -29.053 -13.653  20.760  0.00  0.00    +0.092 A 
BRANCH   6  16
ATOM     15  C   UNL     1     -25.277 -13.880  20.510  0.00  0.00    +0.277 C 
ATOM     16  O   UNL     1     -26.640 -14.173  20.795  0.00  0.00    -0.495 OA
ENDBRANCH   6  16
ENDBRANCH   5  10
ENDBRANCH   1   5
BRANCH   3  17
ATOM     17  C   UNL     1     -30.826 -12.510  14.830  0.00  0.00    +0.114 C 
BRANCH  17  18
ATOM     18  C   UNL     1     -32.140 -12.412  14.050  0.00  0.00    -0.027 A 
ATOM     19  C   UNL     1     -33.116 -11.466  14.431  0.00  0.00    +0.005 A 
ATOM     20  C   UNL     1     -34.291 -11.310  13.690  0.00  0.00    +0.000 A 
ATOM     21  C   UNL     1     -34.496 -12.065  12.536  0.00  0.00    +0.000 A 
ATOM     22  C   UNL     1     -33.517 -12.962  12.108  0.00  0.00    +0.000 A 
ATOM     23  C   UNL     1     -32.340 -13.123  12.846  0.00  0.00    +0.005 A 
ENDBRANCH  17  18
BRANCH  17  24
ATOM     24  C   UNL     1     -30.102 -13.881  14.797  0.00  0.00    +0.147 C 
BRANCH  24  25
ATOM     25  C   UNL     1     -29.520 -14.306  16.114  0.00  0.00    +0.307 C 
ATOM     26  O   UNL     1     -30.282 -14.565  17.085  0.00  0.00    -0.251 OA
BRANCH  25  27
ATOM     27  O   UNL     1     -28.142 -14.410  16.273  0.00  0.00    -0.481 OA
ATOM     28  H   UNL     1     -27.560 -13.582  16.320  0.00  0.00    +0.295 HD
ENDBRANCH  25  27
ENDBRANCH  24  25
ENDBRANCH  17  24
ENDBRANCH   3  17
TORSDOF 8
ENDMDL
MODEL 3
REMARK VINA RESULT:    -4.366      2.115      5.412
REMARK INTER + INTRA:          -9.382
REMARK INTER:                  -7.570
REMARK INTRA:                  -1.812
REMARK UNBOUND:                -3.102
REMARK  Name = 
REMARK  9 active torsions:
REMARK  status: ('A' for Active; 'I' for Inactive)
REMARK    1  A    between atoms: C_1  and  O_2
REMARK    2  A    between atoms: O_2  and  C_3
REMARK    3  A    between atoms: C_7  and  C_12
REMARK    4  A    between atoms: C_12  and  C_13
REMARK    5  A    between atoms: N_15  and  C_16
REMARK    6  A    between atoms: C_16  and  C_17
REMARK    7  A    between atoms: C_16  and  C_21
REMARK    8  A    between atoms: C_17  and  C_18
REMARK    9  A    between atoms: C_18  and  O_20
REMARK                            x       y       z     vdW  Elec       q    Type
REMARK                         _______ _______ _______ _____ _____    ______ ____
ROOT
ATOM      1  C   UNL     1     -28.649 -12.342  17.834  0.00  0.00    +0.218 C 
ATOM      2  O   UNL     1     -27.685 -13.136  18.002  0.00  0.00    -0.275 OA
ATOM      3  N   UNL     1     -29.927 -12.824  17.381  0.00  0.00    -0.308 N 
ATOM      4  H   UNL     1     -30.744 -12.176  17.438  0.00  0.00    +0.149 HD
ENDROOT
BRANCH   1   5
ATOM      5  C   UNL     1     -28.441 -10.878  18.071  0.00  0.00    +0.134 C 
BRANCH   5  10
ATOM      6  C   UNL     1     -33.153  -9.122  16.313  0.00  0.00    +0.124 A 
ATOM      7  C   UNL     1     -32.187  -9.850  15.580  0.00  0.00    +0.046 A 
ATOM      8  C   UNL     1     -30.993 -10.281  16.186  0.00  0.00    +0.015 A 
ATOM      9  C   UNL     1     -30.797  -9.968  17.529  0.00  0.00    +0.024 A 
ATOM     10  C   UNL     1     -29.750 -10.225  18.389  0.00  0.00    +0.007 A 
ATOM     11  C   UNL     1     -30.113  -9.628  19.591  0.00  0.00    +0.200 A 
ATOM     12  O   UNL     1     -31.302  -9.065  19.476  0.00  0.00    -0.463 OA
ATOM     13  C   UNL     1     -31.721  -9.258  18.247  0.00  0.00    +0.139 A 
ATOM     14  C   UNL     1     -32.914  -8.820  17.677  0.00  0.00    +0.092 A 
BRANCH   6  16
ATOM     15  C   UNL     1     -34.722  -9.192  14.371  0.00  0.00    +0.277 C 
ATOM     16  O   UNL     1     -34.323  -8.722  15.653  0.00  0.00    -0.495 OA
ENDBRANCH   6  16
ENDBRANCH   5  10
ENDBRANCH   1   5
BRANCH   3  17
ATOM     17  C   UNL     1     -30.159 -14.147  16.779  0.00  0.00    +0.114 C 
BRANCH  17  18
ATOM     18  C   UNL     1     -29.751 -14.199  15.305  0.00  0.00    -0.027 A 
ATOM     19  C   UNL     1     -28.514 -14.771  14.936  0.00  0.00    +0.005 A 
ATOM     20  C   UNL     1     -28.152 -14.895  13.592  0.00  0.00    +0.000 A 
ATOM     21  C   UNL     1     -29.033 -14.488  12.590  0.00  0.00    +0.000 A 
ATOM     22  C   UNL     1     -30.286 -13.976  12.931  0.00  0.00    +0.000 A 
ATOM     23  C   UNL     1     -30.652 -13.849  14.275  0.00  0.00    +0.005 A 
ENDBRANCH  17  18
BRANCH  17  24
ATOM     24  C   UNL     1     -31.590 -14.639  17.119  0.00  0.00    +0.147 C 
BRANCH  24  25
ATOM     25  C   UNL     1     -32.515 -13.564  17.613  0.00  0.00    +0.307 C 
ATOM     26  O   UNL     1     -33.336 -13.028  16.822  0.00  0.00    -0.251 OA
BRANCH  25  27
ATOM     27  O   UNL     1     -32.466 -13.151  18.940  0.00  0.00    -0.481 OA
ATOM     28  H   UNL     1     -31.730 -12.535  19.266  0.00  0.00    +0.295 HD
ENDBRANCH  25  27
ENDBRANCH  24  25
ENDBRANCH  17  24
ENDBRANCH   3  17
TORSDOF 8
ENDMDL
MODEL 4
REMARK VINA RESULT:    -4.197      2.385      5.434
REMARK INTER + INTRA:          -9.139
REMARK INTER:                  -6.621
REMARK INTRA:                  -2.519
REMARK UNBOUND:                -3.102
REMARK  Name = 
REMARK  9 active torsions:
REMARK  status: ('A' for Active; 'I' for Inactive)
REMARK    1  A    between atoms: C_1  and  O_2
REMARK    2  A    between atoms: O_2  and  C_3
REMARK    3  A    between atoms: C_7  and  C_12
REMARK    4  A    between atoms: C_12  and  C_13
REMARK    5  A    between atoms: N_15  and  C_16
REMARK    6  A    between atoms: C_16  and  C_17
REMARK    7  A    between atoms: C_16  and  C_21
REMARK    8  A    between atoms: C_17  and  C_18
REMARK    9  A    between atoms: C_18  and  O_20
REMARK                            x       y       z     vdW  Elec       q    Type
REMARK                         _______ _______ _______ _____ _____    ______ ____
ROOT
ATOM      1  C   UNL     1     -29.768 -14.064  17.422  0.00  0.00    +0.218 C 
ATOM      2  O   UNL     1     -30.831 -14.687  17.691  0.00  0.00    -0.275 OA
ATOM      3  N   UNL     1     -28.926 -13.562  18.475  0.00  0.00    -0.308 N 
ATOM      4  H   UNL     1     -27.970 -13.226  18.221  0.00  0.00    +0.149 HD
ENDROOT
BRANCH   1   5
ATOM      5  C   UNL     1     -29.409 -13.814  15.990  0.00  0.00    +0.134 C 
BRANCH   5  10
ATOM      6  C   UNL     1     -32.830  -9.748  15.623  0.00  0.00    +0.124 A 
ATOM      7  C   UNL     1     -31.712  -9.846  16.485  0.00  0.00    +0.046 A 
ATOM      8  C   UNL     1     -30.870 -10.973  16.450  0.00  0.00    +0.015 A 
ATOM      9  C   UNL     1     -31.174 -11.983  15.541  0.00  0.00    +0.024 A 
ATOM     10  C   UNL     1     -30.570 -13.194  15.278  0.00  0.00    +0.007 A 
ATOM     11  C   UNL     1     -31.354 -13.784  14.291  0.00  0.00    +0.200 A 
ATOM     12  O   UNL     1     -32.351 -12.981  13.966  0.00  0.00    -0.463 OA
ATOM     13  C   UNL     1     -32.257 -11.902  14.708  0.00  0.00    +0.139 A 
ATOM     14  C   UNL     1     -33.108 -10.800  14.715  0.00  0.00    +0.092 A 
BRANCH   6  16
ATOM     15  C   UNL     1     -34.664  -8.275  14.781  0.00  0.00    +0.277 C 
ATOM     16  O   UNL     1     -33.631  -8.600  15.705  0.00  0.00    -0.495 OA
ENDBRANCH   6  16
ENDBRANCH   5  10
ENDBRANCH   1   5
BRANCH   3  17
ATOM     17  C   UNL     1     -29.334 -13.424  19.883  0.00  0.00    +0.114 C 
BRANCH  17  18
ATOM     18  C   UNL     1     -30.204 -12.187  20.122  0.00  0.00    -0.027 A 
ATOM     19  C   UNL     1     -29.620 -10.902  20.108  0.00  0.00    +0.005 A 
ATOM     20  C   UNL     1     -30.406  -9.755  20.252  0.00  0.00    +0.000 A 
ATOM     21  C   UNL     1     -31.790  -9.866  20.372  0.00  0.00    +0.000 A 
ATOM     22  C   UNL     1     -32.394 -11.123  20.327  0.00  0.00    +0.000 A 
ATOM     23  C   UNL     1     -31.613 -12.275  20.185  0.00  0.00    +0.005 A 
ENDBRANCH  17  18
BRANCH  17  24
ATOM     24  C   UNL     1     -28.103 -13.593  20.810  0.00  0.00    +0.147 C 
BRANCH  24  25
ATOM     25  C   UNL     1     -26.807 -13.820  20.086  0.00  0.00    +0.307 C 
ATOM     26  O   UNL     1     -26.283 -12.881  19.427  0.00  0.00    -0.251 OA
BRANCH  25  27
ATOM     27  O   UNL     1     -26.184 -15.062  20.131  0.00  0.00    -0.481 OA
ATOM     28  H   UNL     1     -25.184 -15.137  20.270  0.00  0.00    +0.295 HD
ENDBRANCH  25  27
ENDBRANCH  24  25
ENDBRANCH  17  24
ENDBRANCH   3  17
TORSDOF 8
ENDMDL
MODEL 5
REMARK VINA RESULT:    -3.951      2.540      5.235
REMARK INTER + INTRA:          -8.786
REMARK INTER:                  -6.896
REMARK INTRA:                  -1.890
REMARK UNBOUND:                -3.102
REMARK  Name = 
REMARK  9 active torsions:
REMARK  status: ('A' for Active; 'I' for Inactive)
REMARK    1  A    between atoms: C_1  and  O_2
REMARK    2  A    between atoms: O_2  and  C_3
REMARK    3  A    between atoms: C_7  and  C_12
REMARK    4  A    between atoms: C_12  and  C_13
REMARK    5  A    between atoms: N_15  and  C_16
REMARK    6  A    between atoms: C_16  and  C_17
REMARK    7  A    between atoms: C_16  and  C_21
REMARK    8  A    between atoms: C_17  and  C_18
REMARK    9  A    between atoms: C_18  and  O_20
REMARK                            x       y       z     vdW  Elec       q    Type
REMARK                         _______ _______ _______ _____ _____    ______ ____
ROOT
ATOM      1  C   UNL     1     -32.487 -12.029  17.358  0.00  0.00    +0.218 C 
ATOM      2  O   UNL     1     -33.158 -13.037  17.709  0.00  0.00    -0.275 OA
ATOM      3  N   UNL     1     -32.243 -11.758  15.966  0.00  0.00    -0.308 N 
ATOM      4  H   UNL     1     -31.854 -10.823  15.709  0.00  0.00    +0.149 HD
ENDROOT
BRANCH   1   5
ATOM      5  C   UNL     1     -31.907 -11.135  18.410  0.00  0.00    +0.134 C 
BRANCH   5  10
ATOM      6  C   UNL     1     -27.034 -12.974  19.530  0.00  0.00    +0.124 A 
ATOM      7  C   UNL     1     -28.270 -13.550  19.908  0.00  0.00    +0.046 A 
ATOM      8  C   UNL     1     -29.489 -12.970  19.510  0.00  0.00    +0.015 A 
ATOM      9  C   UNL     1     -29.435 -11.814  18.735  0.00  0.00    +0.024 A 
ATOM     10  C   UNL     1     -30.428 -11.013  18.211  0.00  0.00    +0.007 A 
ATOM     11  C   UNL     1     -29.757  -9.981  17.562  0.00  0.00    +0.200 A 
ATOM     12  O   UNL     1     -28.452 -10.153  17.669  0.00  0.00    -0.463 OA
ATOM     13  C   UNL     1     -28.246 -11.244  18.370  0.00  0.00    +0.139 A 
ATOM     14  C   UNL     1     -27.023 -11.795  18.744  0.00  0.00    +0.092 A 
BRANCH   6  16
ATOM     15  C   UNL     1     -25.733 -14.350  21.159  0.00  0.00    +0.277 C 
ATOM     16  O   UNL     1     -25.854 -13.600  19.956  0.00  0.00    -0.495 OA
ENDBRANCH   6  16
ENDBRANCH   5  10
ENDBRANCH   1   5
BRANCH   3  17
ATOM     17  C   UNL     1     -32.440 -12.726  14.875  0.00  0.00    +0.114 C 
BRANCH  17  18
ATOM     18  C   UNL     1     -31.146 -13.446  14.490  0.00  0.00    -0.027 A 
ATOM     19  C   UNL     1     -30.275 -13.917  15.497  0.00  0.00    +0.005 A 
ATOM     20  C   UNL     1     -29.125 -14.640  15.171  0.00  0.00    +0.000 A 
ATOM     21  C   UNL     1     -28.842 -14.942  13.840  0.00  0.00    +0.000 A 
ATOM     22  C   UNL     1     -29.721 -14.538  12.833  0.00  0.00    +0.000 A 
ATOM     23  C   UNL     1     -30.873 -13.813  13.153  0.00  0.00    +0.005 A 
ENDBRANCH  17  18
BRANCH  17  24
ATOM     24  C   UNL     1     -33.234 -12.065  13.719  0.00  0.00    +0.147 C 
BRANCH  24  25
ATOM     25  C   UNL     1     -34.254 -11.056  14.163  0.00  0.00    +0.307 C 
ATOM     26  O   UNL     1     -34.463 -10.025  13.467  0.00  0.00    -0.251 OA
BRANCH  25  27
ATOM     27  O   UNL     1     -34.965 -11.247  15.343  0.00  0.00    -0.481 OA
ATOM     28  H   UNL     1     -34.514 -11.627  16.166  0.00  0.00    +0.295 HD
ENDBRANCH  25  27
ENDBRANCH  24  25
ENDBRANCH  17  24
ENDBRANCH   3  17
TORSDOF 8
ENDMDL
MODEL 6
REMARK VINA RESULT:    -3.945      2.824      4.922
REMARK INTER + INTRA:          -8.777
REMARK INTER:                  -7.619
REMARK INTRA:                  -1.157
REMARK UNBOUND:                -3.102
REMARK  Name = 
REMARK  9 active torsions:
REMARK  status: ('A' for Active; 'I' for Inactive)
REMARK    1  A    between atoms: C_1  and  O_2
REMARK    2  A    between atoms: O_2  and  C_3
REMARK    3  A    between atoms: C_7  and  C_12
REMARK    4  A    between atoms: C_12  and  C_13
REMARK    5  A    between atoms: N_15  and  C_16
REMARK    6  A    between atoms: C_16  and  C_17
REMARK    7  A    between atoms: C_16  and  C_21
REMARK    8  A    between atoms: C_17  and  C_18
REMARK    9  A    between atoms: C_18  and  O_20
REMARK                            x       y       z     vdW  Elec       q    Type
REMARK                         _______ _______ _______ _____ _____    ______ ____
ROOT
ATOM      1  C   UNL     1     -31.874 -10.349  17.014  0.00  0.00    +0.218 C 
ATOM      2  O   UNL     1     -32.374 -11.170  17.830  0.00  0.00    -0.275 OA
ATOM      3  N   UNL     1     -32.575  -9.993  15.809  0.00  0.00    -0.308 N 
ATOM      4  H   UNL     1     -32.224  -9.176  15.261  0.00  0.00    +0.149 HD
ENDROOT
BRANCH   1   5
ATOM      5  C   UNL     1     -30.519  -9.775  17.292  0.00  0.00    +0.134 C 
BRANCH   5  10
ATOM      6  C   UNL     1     -28.088 -13.049  20.720  0.00  0.00    +0.124 A 
ATOM      7  C   UNL     1     -28.103 -13.151  19.309  0.00  0.00    +0.046 A 
ATOM      8  C   UNL     1     -28.763 -12.189  18.522  0.00  0.00    +0.015 A 
ATOM      9  C   UNL     1     -29.396 -11.137  19.179  0.00  0.00    +0.024 A 
ATOM     10  C   UNL     1     -30.126 -10.067  18.707  0.00  0.00    +0.007 A 
ATOM     11  C   UNL     1     -30.538  -9.379  19.844  0.00  0.00    +0.200 A 
ATOM     12  O   UNL     1     -30.076  -9.978  20.927  0.00  0.00    -0.463 OA
ATOM     13  C   UNL     1     -29.394 -11.032  20.543  0.00  0.00    +0.139 A 
ATOM     14  C   UNL     1     -28.748 -11.965  21.350  0.00  0.00    +0.092 A 
BRANCH   6  16
ATOM     15  C   UNL     1     -26.116 -14.529  21.125  0.00  0.00    +0.277 C 
ATOM     16  O   UNL     1     -27.412 -14.039  21.448  0.00  0.00    -0.495 OA
ENDBRANCH   6  16
ENDBRANCH   5  10
ENDBRANCH   1   5
BRANCH   3  17
ATOM     17  C   UNL     1     -33.716 -10.736  15.251  0.00  0.00    +0.114 C 
BRANCH  17  18
ATOM     18  C   UNL     1     -33.322 -11.596  14.047  0.00  0.00    -0.027 A 
ATOM     19  C   UNL     1     -32.059 -12.225  14.014  0.00  0.00    +0.005 A 
ATOM     20  C   UNL     1     -31.706 -13.073  12.960  0.00  0.00    +0.000 A 
ATOM     21  C   UNL     1     -32.620 -13.340  11.942  0.00  0.00    +0.000 A 
ATOM     22  C   UNL     1     -33.896 -12.777  11.986  0.00  0.00    +0.000 A 
ATOM     23  C   UNL     1     -34.254 -11.927  13.038  0.00  0.00    +0.005 A 
ENDBRANCH  17  18
BRANCH  17  24
ATOM     24  C   UNL     1     -34.923  -9.783  15.055  0.00  0.00    +0.147 C 
BRANCH  24  25
ATOM     25  C   UNL     1     -34.581  -8.323  15.133  0.00  0.00    +0.307 C 
ATOM     26  O   UNL     1     -34.770  -7.579  14.133  0.00  0.00    -0.251 OA
BRANCH  25  27
ATOM     27  O   UNL     1     -34.048  -7.788  16.301  0.00  0.00    -0.481 OA
ATOM     28  H   UNL     1     -33.348  -8.291  16.831  0.00  0.00    +0.295 HD
ENDBRANCH  25  27
ENDBRANCH  24  25
ENDBRANCH  17  24
ENDBRANCH   3  17
TORSDOF 8
ENDMDL
MODEL 7
REMARK VINA RESULT:    -3.776      1.948      6.875
REMARK INTER + INTRA:          -8.533
REMARK INTER:                  -5.931
REMARK INTRA:                  -2.603
REMARK UNBOUND:                -3.102
REMARK  Name = 
REMARK  9 active torsions:
REMARK  status: ('A' for Active; 'I' for Inactive)
REMARK    1  A    between atoms: C_1  and  O_2
REMARK    2  A    between atoms: O_2  and  C_3
REMARK    3  A    between atoms: C_7  and  C_12
REMARK    4  A    between atoms: C_12  and  C_13
REMARK    5  A    between atoms: N_15  and  C_16
REMARK    6  A    between atoms: C_16  and  C_17
REMARK    7  A    between atoms: C_16  and  C_21
REMARK    8  A    between atoms: C_17  and  C_18
REMARK    9  A    between atoms: C_18  and  O_20
REMARK                            x       y       z     vdW  Elec       q    Type
REMARK                         _______ _______ _______ _____ _____    ______ ____
ROOT
ATOM      1  C   UNL     1     -31.814 -12.159  15.184  0.00  0.00    +0.218 C 
ATOM      2  O   UNL     1     -32.816 -12.797  15.607  0.00  0.00    -0.275 OA
ATOM      3  N   UNL     1     -30.505 -12.756  15.192  0.00  0.00    -0.308 N 
ATOM      4  H   UNL     1     -29.743 -12.277  14.663  0.00  0.00    +0.149 HD
ENDROOT
BRANCH   1   5
ATOM      5  C   UNL     1     -31.992 -10.749  14.709  0.00  0.00    +0.134 C 
BRANCH   5  10
ATOM      6  C   UNL     1     -31.101  -8.720  19.553  0.00  0.00    +0.124 A 
ATOM      7  C   UNL     1     -30.196  -9.468  18.762  0.00  0.00    +0.046 A 
ATOM      8  C   UNL     1     -30.558  -9.915  17.479  0.00  0.00    +0.015 A 
ATOM      9  C   UNL     1     -31.832  -9.597  17.016  0.00  0.00    +0.024 A 
ATOM     10  C   UNL     1     -32.482  -9.894  15.836  0.00  0.00    +0.007 A 
ATOM     11  C   UNL     1     -33.750  -9.338  15.970  0.00  0.00    +0.200 A 
ATOM     12  O   UNL     1     -33.857  -8.731  17.138  0.00  0.00    -0.463 OA
ATOM     13  C   UNL     1     -32.718  -8.880  17.774  0.00  0.00    +0.139 A 
ATOM     14  C   UNL     1     -32.390  -8.420  19.047  0.00  0.00    +0.092 A 
BRANCH   6  16
ATOM     15  C   UNL     1     -30.643  -6.944  21.250  0.00  0.00    +0.277 C 
ATOM     16  O   UNL     1     -30.681  -8.302  20.824  0.00  0.00    -0.495 OA
ENDBRANCH   6  16
ENDBRANCH   5  10
ENDBRANCH   1   5
BRANCH   3  17
ATOM     17  C   UNL     1     -30.140 -13.966  15.947  0.00  0.00    +0.114 C 
BRANCH  17  18
ATOM     18  C   UNL     1     -29.822 -13.667  17.414  0.00  0.00    -0.027 A 
ATOM     19  C   UNL     1     -28.540 -13.199  17.776  0.00  0.00    +0.005 A 
ATOM     20  C   UNL     1     -28.249 -12.851  19.098  0.00  0.00    +0.000 A 
ATOM     21  C   UNL     1     -29.241 -12.925  20.075  0.00  0.00    +0.000 A 
ATOM     22  C   UNL     1     -30.531 -13.327  19.728  0.00  0.00    +0.000 A 
ATOM     23  C   UNL     1     -30.828 -13.678  18.407  0.00  0.00    +0.005 A 
ENDBRANCH  17  18
BRANCH  17  24
ATOM     24  C   UNL     1     -29.080 -14.780  15.161  0.00  0.00    +0.147 C 
BRANCH  24  25
ATOM     25  C   UNL     1     -29.051 -14.501  13.686  0.00  0.00    +0.307 C 
ATOM     26  O   UNL     1     -30.131 -14.414  13.042  0.00  0.00    -0.251 OA
BRANCH  25  27
ATOM     27  O   UNL     1     -27.838 -14.346  13.024  0.00  0.00    -0.481 OA
ATOM     28  H   UNL     1     -27.115 -15.051  13.091  0.00  0.00    +0.295 HD
ENDBRANCH  25  27
ENDBRANCH  24  25
ENDBRANCH  17  24
ENDBRANCH   3  17
TORSDOF 8
ENDMDL
MODEL 8
REMARK VINA RESULT:    -3.708      2.398      5.316
REMARK INTER + INTRA:          -8.436
REMARK INTER:                  -7.349
REMARK INTRA:                  -1.087
REMARK UNBOUND:                -3.102
REMARK  Name = 
REMARK  9 active torsions:
REMARK  status: ('A' for Active; 'I' for Inactive)
REMARK    1  A    between atoms: C_1  and  O_2
REMARK    2  A    between atoms: O_2  and  C_3
REMARK    3  A    between atoms: C_7  and  C_12
REMARK    4  A    between atoms: C_12  and  C_13
REMARK    5  A    between atoms: N_15  and  C_16
REMARK    6  A    between atoms: C_16  and  C_17
REMARK    7  A    between atoms: C_16  and  C_21
REMARK    8  A    between atoms: C_17  and  C_18
REMARK    9  A    between atoms: C_18  and  O_20
REMARK                            x       y       z     vdW  Elec       q    Type
REMARK                         _______ _______ _______ _____ _____    ______ ____
ROOT
ATOM      1  C   UNL     1     -31.068 -10.595  16.814  0.00  0.00    +0.218 C 
ATOM      2  O   UNL     1     -30.622 -10.038  15.775  0.00  0.00    -0.275 OA
ATOM      3  N   UNL     1     -31.681 -11.894  16.745  0.00  0.00    -0.308 N 
ATOM      4  H   UNL     1     -31.862 -12.400  17.641  0.00  0.00    +0.149 HD
ENDROOT
BRANCH   1   5
ATOM      5  C   UNL     1     -30.990  -9.869  18.122  0.00  0.00    +0.134 C 
BRANCH   5  10
ATOM      6  C   UNL     1     -27.691 -13.431  20.314  0.00  0.00    +0.124 A 
ATOM      7  C   UNL     1     -27.424 -12.588  19.210  0.00  0.00    +0.046 A 
ATOM      8  C   UNL     1     -28.383 -11.665  18.756  0.00  0.00    +0.015 A 
ATOM      9  C   UNL     1     -29.601 -11.611  19.430  0.00  0.00    +0.024 A 
ATOM     10  C   UNL     1     -30.730 -10.845  19.227  0.00  0.00    +0.007 A 
ATOM     11  C   UNL     1     -31.634 -11.269  20.196  0.00  0.00    +0.200 A 
ATOM     12  O   UNL     1     -31.089 -12.210  20.944  0.00  0.00    -0.463 OA
ATOM     13  C   UNL     1     -29.874 -12.426  20.495  0.00  0.00    +0.139 A 
ATOM     14  C   UNL     1     -28.944 -13.348  20.971  0.00  0.00    +0.092 A 
BRANCH   6  16
ATOM     15  C   UNL     1     -25.298 -14.052  20.677  0.00  0.00    +0.277 C 
ATOM     16  O   UNL     1     -26.693 -14.330  20.720  0.00  0.00    -0.495 OA
ENDBRANCH   6  16
ENDBRANCH   5  10
ENDBRANCH   1   5
BRANCH   3  17
ATOM     17  C   UNL     1     -32.137 -12.542  15.504  0.00  0.00    +0.114 C 
BRANCH  17  18
ATOM     18  C   UNL     1     -31.017 -13.316  14.804  0.00  0.00    -0.027 A 
ATOM     19  C   UNL     1     -30.016 -13.953  15.568  0.00  0.00    +0.005 A 
ATOM     20  C   UNL     1     -29.026 -14.725  14.953  0.00  0.00    +0.000 A 
ATOM     21  C   UNL     1     -29.039 -14.909  13.572  0.00  0.00    +0.000 A 
ATOM     22  C   UNL     1     -30.055 -14.338  12.803  0.00  0.00    +0.000 A 
ATOM     23  C   UNL     1     -31.048 -13.563  13.413  0.00  0.00    +0.005 A 
ENDBRANCH  17  18
BRANCH  17  24
ATOM     24  C   UNL     1     -32.925 -11.528  14.636  0.00  0.00    +0.147 C 
BRANCH  24  25
ATOM     25  C   UNL     1     -34.332 -11.276  15.099  0.00  0.00    +0.307 C 
ATOM     26  O   UNL     1     -35.062 -10.461  14.474  0.00  0.00    -0.251 OA
BRANCH  25  27
ATOM     27  O   UNL     1     -34.831 -11.932  16.219  0.00  0.00    -0.481 OA
ATOM     28  H   UNL     1     -34.345 -11.891  17.106  0.00  0.00    +0.295 HD
ENDBRANCH  25  27
ENDBRANCH  24  25
ENDBRANCH  17  24
ENDBRANCH   3  17
TORSDOF 8
ENDMDL
