MODEL 1
REMARK VINA RESULT:    -4.416      0.000      0.000
REMARK INTER + INTRA:          -9.699
REMARK INTER:                  -6.997
REMARK INTRA:                  -2.702
REMARK UNBOUND:                -2.702
REMARK  Name = 
REMARK  12 active torsions:
REMARK  status: ('A' for Active; 'I' for Inactive)
REMARK    1  A    between atoms: C_1  and  O_2
REMARK    2  A    between atoms: O_2  and  C_3
REMARK    3  A    between atoms: C_3  and  C_4
REMARK    4  A    between atoms: C_4  and  O_5
REMARK    5  A    between atoms: O_5  and  C_6
REMARK    6  A    between atoms: C_11  and  C_12
REMARK    7  A    between atoms: N_14  and  C_15
REMARK    8  A    between atoms: C_15  and  C_16
REMARK    9  A    between atoms: C_15  and  C_20
REMARK   10  A    between atoms: C_16  and  O_18
REMARK   11  A    between atoms: O_18  and  C_19
REMARK   12  A    between atoms: C_24  and  C_26
REMARK                            x       y       z     vdW  Elec       q    Type
REMARK                         _______ _______ _______ _____ _____    ______ ____
ROOT
ATOM      1  C   UNL     1     -31.284 -12.500  19.762  0.00  0.00    +0.248 C 
ATOM      2  O   UNL     1     -30.929 -13.407  20.563  0.00  0.00    -0.270 OA
ATOM      3  N   UNL     1     -30.860 -12.543  18.389  0.00  0.00    -0.295 N 
ATOM      4  H   UNL     1     -31.371 -11.957  17.691  0.00  0.00    +0.150 HD
ENDROOT
BRANCH   1  10
ATOM      5  C   UNL     1     -33.121 -10.811  19.381  0.00  0.00    +0.133 A 
ATOM      6  C   UNL     1     -33.971  -9.808  19.891  0.00  0.00    +0.046 A 
ATOM      7  C   UNL     1     -33.869  -9.404  21.224  0.00  0.00    +0.004 A 
ATOM      8  C   UNL     1     -32.920  -9.987  22.062  0.00  0.00    +0.001 A 
ATOM      9  C   UNL     1     -32.078 -10.988  21.575  0.00  0.00    +0.017 A 
ATOM     10  C   UNL     1     -32.181 -11.423  20.241  0.00  0.00    +0.078 A 
BRANCH   5  11
ATOM     11  O   UNL     1     -33.166 -11.195  18.031  0.00  0.00    -0.489 OA
BRANCH  11  12
ATOM     12  C   UNL     1     -33.853 -10.481  17.005  0.00  0.00    +0.257 C 
BRANCH  12  13
ATOM     13  C   UNL     1     -32.840  -9.780  16.112  0.00  0.00    +0.200 C 
BRANCH  13  15
ATOM     14  C   UNL     1     -30.575  -9.577  16.460  0.00  0.00    +0.194 C 
ATOM     15  O   UNL     1     -31.848  -9.183  16.918  0.00  0.00    -0.380 OA
ENDBRANCH  13  15
ENDBRANCH  12  13
ENDBRANCH  11  12
ENDBRANCH   5  11
ENDBRANCH   1  10
BRANCH   3  16
ATOM     16  C   UNL     1     -29.749 -13.365  17.893  0.00  0.00    +0.213 C 
BRANCH  16  17
ATOM     17  C   UNL     1     -29.937 -13.677  16.419  0.00  0.00    -0.016 A 
ATOM     18  C   UNL     1     -29.002 -14.445  15.695  0.00  0.00    +0.006 A 
ATOM     19  C   UNL     1     -29.180 -14.672  14.329  0.00  0.00    +0.001 A 
ATOM     20  C   UNL     1     -30.286 -14.139  13.667  0.00  0.00    +0.012 A 
ATOM     21  C   UNL     1     -31.234 -13.374  14.366  0.00  0.00    +0.055 A 
ATOM     22  C   UNL     1     -31.036 -13.125  15.736  0.00  0.00    +0.018 A 
BRANCH  21  23
ATOM     23  C   UNL     1     -32.398 -12.767  13.621  0.00  0.00    +0.417 C 
ATOM     24  F   UNL     1     -32.709 -13.563  12.533  0.00  0.00    -0.166 F 
ATOM     25  F   UNL     1     -32.099 -11.491  13.176  0.00  0.00    -0.166 F 
ATOM     26  F   UNL     1     -33.503 -12.688  14.450  0.00  0.00    -0.166 F 
ENDBRANCH  21  23
ENDBRANCH  16  17
BRANCH  16  27
ATOM     27  C   UNL     1     -28.406 -12.756  18.217  0.00  0.00    +0.332 C 
ATOM     28  O   UNL     1     -28.158 -11.556  17.911  0.00  0.00    -0.248 OA
BRANCH  27  29
ATOM     29  O   UNL     1     -27.466 -13.513  18.926  0.00  0.00    -0.466 OA
ATOM     30  C   UNL     1     -27.420 -13.543  20.346  0.00  0.00    +0.280 C 
ENDBRANCH  27  29
ENDBRANCH  16  27
ENDBRANCH   3  16
TORSDOF 10
ENDMDL
MODEL 2
REMARK VINA RESULT:    -3.986      3.102      6.674
REMARK INTER + INTRA:          -9.018
REMARK INTER:                  -6.877
REMARK INTRA:                  -2.140
REMARK UNBOUND:                -2.702
REMARK  Name = 
REMARK  12 active torsions:
REMARK  status: ('A' for Active; 'I' for Inactive)
REMARK    1  A    between atoms: C_1  and  O_2
REMARK    2  A    between atoms: O_2  and  C_3
REMARK    3  A    between atoms: C_3  and  C_4
REMARK    4  A    between atoms: C_4  and  O_5
REMARK    5  A    between atoms: O_5  and  C_6
REMARK    6  A    between atoms: C_11  and  C_12
REMARK    7  A    between atoms: N_14  and  C_15
REMARK    8  A    between atoms: C_15  and  C_16
REMARK    9  A    between atoms: C_15  and  C_20
REMARK   10  A    between atoms: C_16  and  O_18
REMARK   11  A    between atoms: O_18  and  C_19
REMARK   12  A    between atoms: C_24  and  C_26
REMARK                            x       y       z     vdW  Elec       q    Type
REMARK                         _______ _______ _______ _____ _____    ______ ____
ROOT
ATOM      1  C   UNL     1     -33.576 -11.830  16.077  0.00  0.00    +0.248 C 
ATOM      2  O   UNL     1     -34.750 -11.879  16.534  0.00  0.00    -0.270 OA
ATOM      3  N   UNL     1     -32.477 -11.501  16.944  0.00  0.00    -0.295 N 
ATOM      4  H   UNL     1     -31.508 -11.728  16.627  0.00  0.00    +0.150 HD
ENDROOT
BRANCH   1  10
ATOM      5  C   UNL     1     -32.181 -12.857  14.242  0.00  0.00    +0.133 A 
ATOM      6  C   UNL     1     -32.014 -13.174  12.878  0.00  0.00    +0.046 A 
ATOM      7  C   UNL     1     -32.971 -12.783  11.938  0.00  0.00    +0.004 A 
ATOM      8  C   UNL     1     -34.099 -12.070  12.342  0.00  0.00    +0.001 A 
ATOM      9  C   UNL     1     -34.283 -11.758  13.690  0.00  0.00    +0.017 A 
ATOM     10  C   UNL     1     -33.341 -12.163  14.653  0.00  0.00    +0.078 A 
BRANCH   5  11
ATOM     11  O   UNL     1     -31.206 -13.190  15.197  0.00  0.00    -0.489 OA
BRANCH  11  12
ATOM     12  C   UNL     1     -30.877 -14.519  15.594  0.00  0.00    +0.257 C 
BRANCH  12  13
ATOM     13  C   UNL     1     -29.374 -14.726  15.471  0.00  0.00    +0.200 C 
BRANCH  13  15
ATOM     14  C   UNL     1     -28.231 -15.029  13.498  0.00  0.00    +0.194 C 
ATOM     15  O   UNL     1     -28.915 -14.091  14.297  0.00  0.00    -0.380 OA
ENDBRANCH  13  15
ENDBRANCH  12  13
ENDBRANCH  11  12
ENDBRANCH   5  11
ENDBRANCH   1  10
BRANCH   3  16
ATOM     16  C   UNL     1     -32.623 -10.866  18.260  0.00  0.00    +0.213 C 
BRANCH  16  17
ATOM     17  C   UNL     1     -31.402 -11.139  19.120  0.00  0.00    -0.016 A 
ATOM     18  C   UNL     1     -31.450 -11.067  20.526  0.00  0.00    +0.006 A 
ATOM     19  C   UNL     1     -30.297 -11.275  21.285  0.00  0.00    +0.001 A 
ATOM     20  C   UNL     1     -29.084 -11.555  20.656  0.00  0.00    +0.012 A 
ATOM     21  C   UNL     1     -29.010 -11.636  19.257  0.00  0.00    +0.055 A 
ATOM     22  C   UNL     1     -30.169 -11.399  18.495  0.00  0.00    +0.018 A 
BRANCH  21  23
ATOM     23  C   UNL     1     -27.678 -11.894  18.594  0.00  0.00    +0.417 C 
ATOM     24  F   UNL     1     -27.841 -12.828  17.588  0.00  0.00    -0.166 F 
ATOM     25  F   UNL     1     -26.749 -12.369  19.504  0.00  0.00    -0.166 F 
ATOM     26  F   UNL     1     -27.186 -10.724  18.045  0.00  0.00    -0.166 F 
ENDBRANCH  21  23
ENDBRANCH  16  17
BRANCH  16  27
ATOM     27  C   UNL     1     -32.969  -9.401  18.145  0.00  0.00    +0.332 C 
ATOM     28  O   UNL     1     -32.056  -8.533  18.075  0.00  0.00    -0.248 OA
BRANCH  27  29
ATOM     29  O   UNL     1     -34.312  -9.023  18.043  0.00  0.00    -0.466 OA
ATOM     30  C   UNL     1     -34.805  -8.223  16.975  0.00  0.00    +0.280 C 
ENDBRANCH  27  29
ENDBRANCH  16  27
ENDBRANCH   3  16
TORSDOF 10
ENDMDL
MODEL 3
REMARK VINA RESULT:    -3.882      1.863      4.776
REMARK INTER + INTRA:          -8.853
REMARK INTER:                  -6.195
REMARK INTRA:                  -2.658
REMARK UNBOUND:                -2.702
REMARK  Name = 
REMARK  12 active torsions:
REMARK  status: ('A' for Active; 'I' for Inactive)
REMARK    1  A    between atoms: C_1  and  O_2
REMARK    2  A    between atoms: O_2  and  C_3
REMARK    3  A    between atoms: C_3  and  C_4
REMARK    4  A    between atoms: C_4  and  O_5
REMARK    5  A    between atoms: O_5  and  C_6
REMARK    6  A    between atoms: C_11  and  C_12
REMARK    7  A    between atoms: N_14  and  C_15
REMARK    8  A    between atoms: C_15  and  C_16
REMARK    9  A    between atoms: C_15  and  C_20
REMARK   10  A    between atoms: C_16  and  O_18
REMARK   11  A    between atoms: O_18  and  C_19
REMARK   12  A    between atoms: C_24  and  C_26
REMARK                            x       y       z     vdW  Elec       q    Type
REMARK                         _______ _______ _______ _____ _____    ______ ____
ROOT
ATOM      1  C   UNL     1     -30.007 -10.158  18.993  0.00  0.00    +0.248 C 
ATOM      2  O   UNL     1     -29.755  -8.973  19.345  0.00  0.00    -0.270 OA
ATOM      3  N   UNL     1     -30.881 -10.409  17.879  0.00  0.00    -0.295 N 
ATOM      4  H   UNL     1     -30.863 -11.355  17.436  0.00  0.00    +0.150 HD
ENDROOT
BRANCH   1  10
ATOM      5  C   UNL     1     -28.805 -12.377  19.008  0.00  0.00    +0.133 A 
ATOM      6  C   UNL     1     -28.170 -13.407  19.732  0.00  0.00    +0.046 A 
ATOM      7  C   UNL     1     -28.108 -13.359  21.127  0.00  0.00    +0.004 A 
ATOM      8  C   UNL     1     -28.679 -12.290  21.816  0.00  0.00    +0.001 A 
ATOM      9  C   UNL     1     -29.301 -11.257  21.113  0.00  0.00    +0.017 A 
ATOM     10  C   UNL     1     -29.354 -11.279  19.708  0.00  0.00    +0.078 A 
BRANCH   5  11
ATOM     11  O   UNL     1     -28.931 -12.432  17.610  0.00  0.00    -0.489 OA
BRANCH  11  12
ATOM     12  C   UNL     1     -29.087 -13.630  16.854  0.00  0.00    +0.257 C 
BRANCH  12  13
ATOM     13  C   UNL     1     -30.478 -14.200  17.093  0.00  0.00    +0.200 C 
BRANCH  13  15
ATOM     14  C   UNL     1     -32.665 -13.614  17.502  0.00  0.00    +0.194 C 
ATOM     15  O   UNL     1     -31.329 -13.168  17.543  0.00  0.00    -0.380 OA
ENDBRANCH  13  15
ENDBRANCH  12  13
ENDBRANCH  11  12
ENDBRANCH   5  11
ENDBRANCH   1  10
BRANCH   3  16
ATOM     16  C   UNL     1     -31.804  -9.417  17.312  0.00  0.00    +0.213 C 
BRANCH  16  17
ATOM     17  C   UNL     1     -32.465  -9.963  16.059  0.00  0.00    -0.016 A 
ATOM     18  C   UNL     1     -33.750  -9.550  15.654  0.00  0.00    +0.006 A 
ATOM     19  C   UNL     1     -34.349 -10.108  14.524  0.00  0.00    +0.001 A 
ATOM     20  C   UNL     1     -33.681 -11.083  13.784  0.00  0.00    +0.012 A 
ATOM     21  C   UNL     1     -32.398 -11.509  14.163  0.00  0.00    +0.055 A 
ATOM     22  C   UNL     1     -31.809 -10.963  15.318  0.00  0.00    +0.018 A 
BRANCH  21  23
ATOM     23  C   UNL     1     -31.711 -12.598  13.375  0.00  0.00    +0.417 C 
ATOM     24  F   UNL     1     -30.482 -12.871  13.948  0.00  0.00    -0.166 F 
ATOM     25  F   UNL     1     -31.520 -12.219  12.057  0.00  0.00    -0.166 F 
ATOM     26  F   UNL     1     -32.478 -13.749  13.387  0.00  0.00    -0.166 F 
ENDBRANCH  21  23
ENDBRANCH  16  17
BRANCH  16  27
ATOM     27  C   UNL     1     -32.783  -8.903  18.339  0.00  0.00    +0.332 C 
ATOM     28  O   UNL     1     -32.864  -7.667  18.583  0.00  0.00    -0.248 OA
BRANCH  27  29
ATOM     29  O   UNL     1     -33.653  -9.805  18.964  0.00  0.00    -0.466 OA
ATOM     30  C   UNL     1     -33.622 -10.056  20.363  0.00  0.00    +0.280 C 
ENDBRANCH  27  29
ENDBRANCH  16  27
ENDBRANCH   3  16
TORSDOF 10
ENDMDL
MODEL 4
REMARK VINA RESULT:    -3.844      2.036      2.265
REMARK INTER + INTRA:          -8.793
REMARK INTER:                  -6.279
REMARK INTRA:                  -2.513
REMARK UNBOUND:                -2.702
REMARK  Name = 
REMARK  12 active torsions:
REMARK  status: ('A' for Active; 'I' for Inactive)
REMARK    1  A    between atoms: C_1  and  O_2
REMARK    2  A    between atoms: O_2  and  C_3
REMARK    3  A    between atoms: C_3  and  C_4
REMARK    4  A    between atoms: C_4  and  O_5
REMARK    5  A    between atoms: O_5  and  C_6
REMARK    6  A    between atoms: C_11  and  C_12
REMARK    7  A    between atoms: N_14  and  C_15
REMARK    8  A    between atoms: C_15  and  C_16
REMARK    9  A    between atoms: C_15  and  C_20
REMARK   10  A    between atoms: C_16  and  O_18
REMARK   11  A    between atoms: O_18  and  C_19
REMARK   12  A    between atoms: C_24  and  C_26
REMARK                            x       y       z     vdW  Elec       q    Type
REMARK                         _______ _______ _______ _____ _____    ______ ____
ROOT
ATOM      1  C   UNL     1     -30.297  -9.922  19.878  0.00  0.00    +0.248 C 
ATOM      2  O   UNL     1     -29.736 -10.369  20.916  0.00  0.00    -0.270 OA
ATOM      3  N   UNL     1     -30.267 -10.682  18.658  0.00  0.00    -0.295 N 
ATOM      4  H   UNL     1     -30.949 -10.441  17.904  0.00  0.00    +0.150 HD
ENDROOT
BRANCH   1  10
ATOM      5  C   UNL     1     -32.162  -8.388  19.144  0.00  0.00    +0.133 A 
ATOM      6  C   UNL     1     -32.838  -7.156  19.265  0.00  0.00    +0.046 A 
ATOM      7  C   UNL     1     -32.374  -6.178  20.149  0.00  0.00    +0.004 A 
ATOM      8  C   UNL     1     -31.235  -6.412  20.916  0.00  0.00    +0.001 A 
ATOM      9  C   UNL     1     -30.561  -7.631  20.816  0.00  0.00    +0.017 A 
ATOM     10  C   UNL     1     -31.026  -8.635  19.947  0.00  0.00    +0.078 A 
BRANCH   5  11
ATOM     11  O   UNL     1     -32.575  -9.364  18.222  0.00  0.00    -0.489 OA
BRANCH  11  12
ATOM     12  C   UNL     1     -33.833 -10.034  18.256  0.00  0.00    +0.257 C 
BRANCH  12  13
ATOM     13  C   UNL     1     -34.463  -9.997  16.871  0.00  0.00    +0.200 C 
BRANCH  13  15
ATOM     14  C   UNL     1     -34.609  -8.567  15.074  0.00  0.00    +0.194 C 
ATOM     15  O   UNL     1     -33.750  -9.084  16.065  0.00  0.00    -0.380 OA
ENDBRANCH  13  15
ENDBRANCH  12  13
ENDBRANCH  11  12
ENDBRANCH   5  11
ENDBRANCH   1  10
BRANCH   3  16
ATOM     16  C   UNL     1     -29.337 -11.788  18.395  0.00  0.00    +0.213 C 
BRANCH  16  17
ATOM     17  C   UNL     1     -29.751 -12.545  17.146  0.00  0.00    -0.016 A 
ATOM     18  C   UNL     1     -29.153 -13.768  16.783  0.00  0.00    +0.006 A 
ATOM     19  C   UNL     1     -29.522 -14.413  15.602  0.00  0.00    +0.001 A 
ATOM     20  C   UNL     1     -30.487 -13.851  14.767  0.00  0.00    +0.012 A 
ATOM     21  C   UNL     1     -31.101 -12.635  15.107  0.00  0.00    +0.055 A 
ATOM     22  C   UNL     1     -30.706 -11.975  16.285  0.00  0.00    +0.018 A 
BRANCH  21  23
ATOM     23  C   UNL     1     -32.109 -12.020  14.166  0.00  0.00    +0.417 C 
ATOM     24  F   UNL     1     -31.874 -12.477  12.882  0.00  0.00    -0.166 F 
ATOM     25  F   UNL     1     -32.027 -10.639  14.176  0.00  0.00    -0.166 F 
ATOM     26  F   UNL     1     -33.390 -12.379  14.543  0.00  0.00    -0.166 F 
ENDBRANCH  21  23
ENDBRANCH  16  17
BRANCH  16  27
ATOM     27  C   UNL     1     -27.900 -11.326  18.376  0.00  0.00    +0.332 C 
ATOM     28  O   UNL     1     -27.550 -10.357  17.645  0.00  0.00    -0.248 OA
BRANCH  27  29
ATOM     29  O   UNL     1     -26.975 -11.934  19.232  0.00  0.00    -0.466 OA
ATOM     30  C   UNL     1     -27.319 -13.015  20.089  0.00  0.00    +0.280 C 
ENDBRANCH  27  29
ENDBRANCH  16  27
ENDBRANCH   3  16
TORSDOF 10
ENDMDL
MODEL 5
REMARK VINA RESULT:    -3.675      1.862      4.821
REMARK INTER + INTRA:          -8.525
REMARK INTER:                  -6.578
REMARK INTRA:                  -1.947
REMARK UNBOUND:                -2.702
REMARK  Name = 
REMARK  12 active torsions:
REMARK  status: ('A' for Active; 'I' for Inactive)
REMARK    1  A    between atoms: C_1  and  O_2
REMARK    2  A    between atoms: O_2  and  C_3
REMARK    3  A    between atoms: C_3  and  C_4
REMARK    4  A    between atoms: C_4  and  O_5
REMARK    5  A    between atoms: O_5  and  C_6
REMARK    6  A    between atoms: C_11  and  C_12
REMARK    7  A    between atoms: N_14  and  C_15
REMARK    8  A    between atoms: C_15  and  C_16
REMARK    9  A    between atoms: C_15  and  C_20
REMARK   10  A    between atoms: C_16  and  O_18
REMARK   11  A    between atoms: O_18  and  C_19
REMARK   12  A    between atoms: C_24  and  C_26
REMARK                            x       y       z     vdW  Elec       q    Type
REMARK                         _______ _______ _______ _____ _____    ______ ____
ROOT
ATOM      1  C   UNL     1     -28.994 -11.084  18.571  0.00  0.00    +0.248 C 
ATOM      2  O   UNL     1     -28.183 -10.361  17.932  0.00  0.00    -0.270 OA
ATOM      3  N   UNL     1     -30.378 -11.133  18.183  0.00  0.00    -0.295 N 
ATOM      4  H   UNL     1     -30.966 -11.923  18.533  0.00  0.00    +0.150 HD
ENDROOT
BRANCH   1  10
ATOM      5  C   UNL     1     -29.055 -11.825  20.982  0.00  0.00    +0.133 A 
ATOM      6  C   UNL     1     -28.562 -12.659  22.008  0.00  0.00    +0.046 A 
ATOM      7  C   UNL     1     -27.513 -13.546  21.757  0.00  0.00    +0.004 A 
ATOM      8  C   UNL     1     -26.940 -13.611  20.488  0.00  0.00    +0.001 A 
ATOM      9  C   UNL     1     -27.424 -12.800  19.459  0.00  0.00    +0.017 A 
ATOM     10  C   UNL     1     -28.494 -11.917  19.689  0.00  0.00    +0.078 A 
BRANCH   5  11
ATOM     11  O   UNL     1     -30.071 -10.885  21.225  0.00  0.00    -0.489 OA
BRANCH  11  12
ATOM     12  C   UNL     1     -31.308 -11.174  21.870  0.00  0.00    +0.257 C 
BRANCH  12  13
ATOM     13  C   UNL     1     -32.236 -11.880  20.892  0.00  0.00    +0.200 C 
BRANCH  13  15
ATOM     14  C   UNL     1     -33.549 -10.396  22.062  0.00  0.00    +0.194 C 
ATOM     15  O   UNL     1     -33.535 -11.342  21.017  0.00  0.00    -0.380 OA
ENDBRANCH  13  15
ENDBRANCH  12  13
ENDBRANCH  11  12
ENDBRANCH   5  11
ENDBRANCH   1  10
BRANCH   3  16
ATOM     16  C   UNL     1     -31.029 -10.142  17.316  0.00  0.00    +0.213 C 
BRANCH  16  17
ATOM     17  C   UNL     1     -31.545 -10.802  16.049  0.00  0.00    -0.016 A 
ATOM     18  C   UNL     1     -32.661 -10.301  15.350  0.00  0.00    +0.006 A 
ATOM     19  C   UNL     1     -33.139 -10.961  14.216  0.00  0.00    +0.001 A 
ATOM     20  C   UNL     1     -32.516 -12.125  13.766  0.00  0.00    +0.012 A 
ATOM     21  C   UNL     1     -31.400 -12.642  14.443  0.00  0.00    +0.055 A 
ATOM     22  C   UNL     1     -30.938 -11.989  15.600  0.00  0.00    +0.018 A 
BRANCH  21  23
ATOM     23  C   UNL     1     -30.770 -13.928  13.966  0.00  0.00    +0.417 C 
ATOM     24  F   UNL     1     -29.408 -13.742  13.818  0.00  0.00    -0.166 F 
ATOM     25  F   UNL     1     -31.305 -14.330  12.755  0.00  0.00    -0.166 F 
ATOM     26  F   UNL     1     -30.988 -14.935  14.890  0.00  0.00    -0.166 F 
ENDBRANCH  21  23
ENDBRANCH  16  17
BRANCH  16  27
ATOM     27  C   UNL     1     -32.078  -9.346  18.055  0.00  0.00    +0.332 C 
ATOM     28  O   UNL     1     -33.220  -9.839  18.272  0.00  0.00    -0.248 OA
BRANCH  27  29
ATOM     29  O   UNL     1     -31.746  -8.085  18.562  0.00  0.00    -0.466 OA
ATOM     30  C   UNL     1     -31.394  -7.874  19.924  0.00  0.00    +0.280 C 
ENDBRANCH  27  29
ENDBRANCH  16  27
ENDBRANCH   3  16
TORSDOF 10
ENDMDL
MODEL 6
REMARK VINA RESULT:    -3.665      3.266      6.093
REMARK INTER + INTRA:          -8.510
REMARK INTER:                  -6.230
REMARK INTRA:                  -2.280
REMARK UNBOUND:                -2.702
REMARK  Name = 
REMARK  12 active torsions:
REMARK  status: ('A' for Active; 'I' for Inactive)
REMARK    1  A    between atoms: C_1  and  O_2
REMARK    2  A    between atoms: O_2  and  C_3
REMARK    3  A    between atoms: C_3  and  C_4
REMARK    4  A    between atoms: C_4  and  O_5
REMARK    5  A    between atoms: O_5  and  C_6
REMARK    6  A    between atoms: C_11  and  C_12
REMARK    7  A    between atoms: N_14  and  C_15
REMARK    8  A    between atoms: C_15  and  C_16
REMARK    9  A    between atoms: C_15  and  C_20
REMARK   10  A    between atoms: C_16  and  O_18
REMARK   11  A    between atoms: O_18  and  C_19
REMARK   12  A    between atoms: C_24  and  C_26
REMARK                            x       y       z     vdW  Elec       q    Type
REMARK                         _______ _______ _______ _____ _____    ______ ____
ROOT
ATOM      1  C   UNL     1     -31.420 -11.287  15.314  0.00  0.00    +0.248 C 
ATOM      2  O   UNL     1     -30.922 -10.129  15.313  0.00  0.00    -0.270 OA
ATOM      3  N   UNL     1     -31.094 -12.213  16.365  0.00  0.00    -0.295 N 
ATOM      4  H   UNL     1     -31.708 -13.046  16.503  0.00  0.00    +0.150 HD
ENDROOT
BRANCH   1  10
ATOM      5  C   UNL     1     -33.606 -10.977  14.090  0.00  0.00    +0.133 A 
ATOM      6  C   UNL     1     -34.475 -11.354  13.045  0.00  0.00    +0.046 A 
ATOM      7  C   UNL     1     -34.143 -12.411  12.195  0.00  0.00    +0.004 A 
ATOM      8  C   UNL     1     -32.949 -13.106  12.375  0.00  0.00    +0.001 A 
ATOM      9  C   UNL     1     -32.073 -12.738  13.398  0.00  0.00    +0.017 A 
ATOM     10  C   UNL     1     -32.380 -11.662  14.250  0.00  0.00    +0.078 A 
BRANCH   5  11
ATOM     11  O   UNL     1     -33.943  -9.955  14.993  0.00  0.00    -0.489 OA
BRANCH  11  12
ATOM     12  C   UNL     1     -35.062  -9.987  15.876  0.00  0.00    +0.257 C 
BRANCH  12  13
ATOM     13  C   UNL     1     -34.660 -10.669  17.176  0.00  0.00    +0.200 C 
BRANCH  13  15
ATOM     14  C   UNL     1     -34.083  -8.814  18.409  0.00  0.00    +0.194 C 
ATOM     15  O   UNL     1     -33.586  -9.960  17.756  0.00  0.00    -0.380 OA
ENDBRANCH  13  15
ENDBRANCH  12  13
ENDBRANCH  11  12
ENDBRANCH   5  11
ENDBRANCH   1  10
BRANCH   3  16
ATOM     16  C   UNL     1     -29.947 -12.064  17.270  0.00  0.00    +0.213 C 
BRANCH  16  17
ATOM     17  C   UNL     1     -30.420 -11.754  18.680  0.00  0.00    -0.016 A 
ATOM     18  C   UNL     1     -30.904 -12.759  19.541  0.00  0.00    +0.006 A 
ATOM     19  C   UNL     1     -31.378 -12.433  20.812  0.00  0.00    +0.001 A 
ATOM     20  C   UNL     1     -31.378 -11.107  21.243  0.00  0.00    +0.012 A 
ATOM     21  C   UNL     1     -30.897 -10.087  20.406  0.00  0.00    +0.055 A 
ATOM     22  C   UNL     1     -30.446 -10.417  19.115  0.00  0.00    +0.018 A 
BRANCH  21  23
ATOM     23  C   UNL     1     -30.949  -8.653  20.874  0.00  0.00    +0.417 C 
ATOM     24  F   UNL     1     -30.130  -8.502  21.977  0.00  0.00    -0.166 F 
ATOM     25  F   UNL     1     -32.238  -8.282  21.215  0.00  0.00    -0.166 F 
ATOM     26  F   UNL     1     -30.509  -7.810  19.870  0.00  0.00    -0.166 F 
ENDBRANCH  21  23
ENDBRANCH  16  17
BRANCH  16  27
ATOM     27  C   UNL     1     -29.007 -13.242  17.192  0.00  0.00    +0.332 C 
ATOM     28  O   UNL     1     -27.896 -13.215  17.791  0.00  0.00    -0.248 OA
BRANCH  27  29
ATOM     29  O   UNL     1     -29.413 -14.394  16.509  0.00  0.00    -0.466 OA
ATOM     30  C   UNL     1     -29.041 -14.660  15.163  0.00  0.00    +0.280 C 
ENDBRANCH  27  29
ENDBRANCH  16  27
ENDBRANCH   3  16
TORSDOF 10
ENDMDL
MODEL 7
REMARK VINA RESULT:    -3.655      2.505      5.474
REMARK INTER + INTRA:          -8.493
REMARK INTER:                  -7.220
REMARK INTRA:                  -1.272
REMARK UNBOUND:                -2.702
REMARK  Name = 
REMARK  12 active torsions:
REMARK  status: ('A' for Active; 'I' for Inactive)
REMARK    1  A    between atoms: C_1  and  O_2
REMARK    2  A    between atoms: O_2  and  C_3
REMARK    3  A    between atoms: C_3  and  C_4
REMARK    4  A    between atoms: C_4  and  O_5
REMARK    5  A    between atoms: O_5  and  C_6
REMARK    6  A    between atoms: C_11  and  C_12
REMARK    7  A    between atoms: N_14  and  C_15
REMARK    8  A    between atoms: C_15  and  C_16
REMARK    9  A    between atoms: C_15  and  C_20
REMARK   10  A    between atoms: C_16  and  O_18
REMARK   11  A    between atoms: O_18  and  C_19
REMARK   12  A    between atoms: C_24  and  C_26
REMARK                            x       y       z     vdW  Elec       q    Type
REMARK                         _______ _______ _______ _____ _____    ______ ____
ROOT
ATOM      1  C   UNL     1     -29.363 -13.478  17.341  0.00  0.00    +0.248 C 
ATOM      2  O   UNL     1     -29.966 -14.045  18.292  0.00  0.00    -0.270 OA
ATOM      3  N   UNL     1     -28.207 -12.662  17.602  0.00  0.00    -0.295 N 
ATOM      4  H   UNL     1     -27.571 -12.431  16.806  0.00  0.00    +0.150 HD
ENDROOT
BRANCH   1  10
ATOM      5  C   UNL     1     -30.955 -13.022  15.436  0.00  0.00    +0.133 A 
ATOM      6  C   UNL     1     -31.344 -13.250  14.100  0.00  0.00    +0.046 A 
ATOM      7  C   UNL     1     -30.644 -14.158  13.303  0.00  0.00    +0.004 A 
ATOM      8  C   UNL     1     -29.553 -14.852  13.826  0.00  0.00    +0.001 A 
ATOM      9  C   UNL     1     -29.149 -14.629  15.143  0.00  0.00    +0.017 A 
ATOM     10  C   UNL     1     -29.829 -13.702  15.953  0.00  0.00    +0.078 A 
BRANCH   5  11
ATOM     11  O   UNL     1     -31.678 -12.156  16.274  0.00  0.00    -0.489 OA
BRANCH  11  12
ATOM     12  C   UNL     1     -32.976 -12.428  16.797  0.00  0.00    +0.257 C 
BRANCH  12  13
ATOM     13  C   UNL     1     -33.993 -11.520  16.120  0.00  0.00    +0.200 C 
BRANCH  13  15
ATOM     14  C   UNL     1     -34.205  -9.457  15.123  0.00  0.00    +0.194 C 
ATOM     15  O   UNL     1     -33.310 -10.506  15.415  0.00  0.00    -0.380 OA
ENDBRANCH  13  15
ENDBRANCH  12  13
ENDBRANCH  11  12
ENDBRANCH   5  11
ENDBRANCH   1  10
BRANCH   3  16
ATOM     16  C   UNL     1     -27.853 -12.131  18.924  0.00  0.00    +0.213 C 
BRANCH  16  17
ATOM     17  C   UNL     1     -29.038 -11.408  19.540  0.00  0.00    -0.016 A 
ATOM     18  C   UNL     1     -29.442 -11.639  20.870  0.00  0.00    +0.006 A 
ATOM     19  C   UNL     1     -30.566 -10.994  21.390  0.00  0.00    +0.001 A 
ATOM     20  C   UNL     1     -31.301 -10.114  20.595  0.00  0.00    +0.012 A 
ATOM     21  C   UNL     1     -30.917  -9.863  19.268  0.00  0.00    +0.055 A 
ATOM     22  C   UNL     1     -29.799 -10.536  18.741  0.00  0.00    +0.018 A 
BRANCH  21  23
ATOM     23  C   UNL     1     -31.752  -8.944  18.411  0.00  0.00    +0.417 C 
ATOM     24  F   UNL     1     -31.645  -7.651  18.890  0.00  0.00    -0.166 F 
ATOM     25  F   UNL     1     -33.084  -9.321  18.422  0.00  0.00    -0.166 F 
ATOM     26  F   UNL     1     -31.304  -8.976  17.103  0.00  0.00    -0.166 F 
ENDBRANCH  21  23
ENDBRANCH  16  17
BRANCH  16  27
ATOM     27  C   UNL     1     -27.258 -13.191  19.819  0.00  0.00    +0.332 C 
ATOM     28  O   UNL     1     -28.006 -13.996  20.440  0.00  0.00    -0.248 OA
BRANCH  27  29
ATOM     29  O   UNL     1     -25.866 -13.318  19.894  0.00  0.00    -0.466 OA
ATOM     30  C   UNL     1     -25.227 -14.260  20.747  0.00  0.00    +0.280 C 
ENDBRANCH  27  29
ENDBRANCH  16  27
ENDBRANCH   3  16
TORSDOF 10
ENDMDL
MODEL 8
REMARK VINA RESULT:    -3.530      3.696      5.931
REMARK INTER + INTRA:          -8.296
REMARK INTER:                  -6.229
REMARK INTRA:                  -2.067
REMARK UNBOUND:                -2.702
REMARK  Name = 
REMARK  12 active torsions:
REMARK  status: ('A' for Active; 'I' for Inactive)
REMARK    1  A    between atoms: C_1  and  O_2
REMARK    2  A    between atoms: O_2  and  C_3
REMARK    3  A    between atoms: C_3  and  C_4
REMARK    4  A    between atoms: C_4  and  O_5
REMARK    5  A    between atoms: O_5  and  C_6
REMARK    6  A    between atoms: C_11  and  C_12
REMARK    7  A    between atoms: N_14  and  C_15
REMARK    8  A    between atoms: C_15  and  C_16
REMARK    9  A    between atoms: C_15  and  C_20
REMARK   10  A    between atoms: C_16  and  O_18
REMARK   11  A    between atoms: O_18  and  C_19
REMARK   12  A    between atoms: C_24  and  C_26
REMARK                            x       y       z     vdW  Elec       q    Type
REMARK                         _______ _______ _______ _____ _____    ______ ____
ROOT
ATOM      1  C   UNL     1     -31.501 -11.436  15.687  0.00  0.00    +0.248 C 
ATOM      2  O   UNL     1     -30.893 -11.829  14.655  0.00  0.00    -0.270 OA
ATOM      3  N   UNL     1     -31.062 -11.862  16.989  0.00  0.00    -0.295 N 
ATOM      4  H   UNL     1     -31.390 -11.327  17.825  0.00  0.00    +0.150 HD
ENDROOT
BRANCH   1  10
ATOM      5  C   UNL     1     -32.832  -9.435  16.456  0.00  0.00    +0.133 A 
ATOM      6  C   UNL     1     -33.913  -8.550  16.262  0.00  0.00    +0.046 A 
ATOM      7  C   UNL     1     -34.798  -8.735  15.197  0.00  0.00    +0.004 A 
ATOM      8  C   UNL     1     -34.621  -9.802  14.318  0.00  0.00    +0.001 A 
ATOM      9  C   UNL     1     -33.549 -10.680  14.490  0.00  0.00    +0.017 A 
ATOM     10  C   UNL     1     -32.636 -10.496  15.544  0.00  0.00    +0.078 A 
BRANCH   5  11
ATOM     11  O   UNL     1     -31.963  -9.303  17.552  0.00  0.00    -0.489 OA
BRANCH  11  12
ATOM     12  C   UNL     1     -32.250  -8.555  18.732  0.00  0.00    +0.257 C 
BRANCH  12  13
ATOM     13  C   UNL     1     -32.664  -9.508  19.845  0.00  0.00    +0.200 C 
BRANCH  13  15
ATOM     14  C   UNL     1     -34.225  -7.951  20.504  0.00  0.00    +0.194 C 
ATOM     15  O   UNL     1     -34.027  -9.300  20.146  0.00  0.00    -0.380 OA
ENDBRANCH  13  15
ENDBRANCH  12  13
ENDBRANCH  11  12
ENDBRANCH   5  11
ENDBRANCH   1  10
BRANCH   3  16
ATOM     16  C   UNL     1     -30.173 -13.006  17.228  0.00  0.00    +0.213 C 
BRANCH  16  17
ATOM     17  C   UNL     1     -29.701 -13.019  18.672  0.00  0.00    -0.016 A 
ATOM     18  C   UNL     1     -30.534 -12.607  19.731  0.00  0.00    +0.006 A 
ATOM     19  C   UNL     1     -30.052 -12.584  21.041  0.00  0.00    +0.001 A 
ATOM     20  C   UNL     1     -28.739 -12.967  21.314  0.00  0.00    +0.012 A 
ATOM     21  C   UNL     1     -27.890 -13.385  20.276  0.00  0.00    +0.055 A 
ATOM     22  C   UNL     1     -28.371 -13.381  18.954  0.00  0.00    +0.018 A 
BRANCH  21  23
ATOM     23  C   UNL     1     -26.458 -13.751  20.586  0.00  0.00    +0.417 C 
ATOM     24  F   UNL     1     -26.231 -15.062  20.212  0.00  0.00    -0.166 F 
ATOM     25  F   UNL     1     -26.187 -13.613  21.936  0.00  0.00    -0.166 F 
ATOM     26  F   UNL     1     -25.595 -12.928  19.886  0.00  0.00    -0.166 F 
ENDBRANCH  21  23
ENDBRANCH  16  17
BRANCH  16  27
ATOM     27  C   UNL     1     -30.793 -14.307  16.782  0.00  0.00    +0.332 C 
ATOM     28  O   UNL     1     -31.906 -14.679  17.248  0.00  0.00    -0.248 OA
BRANCH  27  29
ATOM     29  O   UNL     1     -30.156 -15.062  15.790  0.00  0.00    -0.466 OA
ATOM     30  C   UNL     1     -28.964 -14.632  15.145  0.00  0.00    +0.280 C 
ENDBRANCH  27  29
ENDBRANCH  16  27
ENDBRANCH   3  16
TORSDOF 10
ENDMDL
MODEL 9
REMARK VINA RESULT:    -3.510      3.479      6.841
REMARK INTER + INTRA:          -8.263
REMARK INTER:                  -5.363
REMARK INTRA:                  -2.900
REMARK UNBOUND:                -2.702
REMARK  Name = 
REMARK  12 active torsions:
REMARK  status: ('A' for Active; 'I' for Inactive)
REMARK    1  A    between atoms: C_1  and  O_2
REMARK    2  A    between atoms: O_2  and  C_3
REMARK    3  A    between atoms: C_3  and  C_4
REMARK    4  A    between atoms: C_4  and  O_5
REMARK    5  A    between atoms: O_5  and  C_6
REMARK    6  A    between atoms: C_11  and  C_12
REMARK    7  A    between atoms: N_14  and  C_15
REMARK    8  A    between atoms: C_15  and  C_16
REMARK    9  A    between atoms: C_15  and  C_20
REMARK   10  A    between atoms: C_16  and  O_18
REMARK   11  A    between atoms: O_18  and  C_19
REMARK   12  A    between atoms: C_24  and  C_26
REMARK                            x       y       z     vdW  Elec       q    Type
REMARK                         _______ _______ _______ _____ _____    ______ ____
ROOT
ATOM      1  C   UNL     1     -32.346 -10.310  15.744  0.00  0.00    +0.248 C 
ATOM      2  O   UNL     1     -32.932  -9.196  15.669  0.00  0.00    -0.270 OA
ATOM      3  N   UNL     1     -31.543 -10.628  16.895  0.00  0.00    -0.295 N 
ATOM      4  H   UNL     1     -31.297 -11.628  17.069  0.00  0.00    +0.150 HD
ENDROOT
BRANCH   1  10
ATOM      5  C   UNL     1     -31.628 -12.367  14.470  0.00  0.00    +0.133 A 
ATOM      6  C   UNL     1     -31.866 -13.301  13.440  0.00  0.00    +0.046 A 
ATOM      7  C   UNL     1     -32.973 -13.161  12.600  0.00  0.00    +0.004 A 
ATOM      8  C   UNL     1     -33.850 -12.091  12.770  0.00  0.00    +0.001 A 
ATOM      9  C   UNL     1     -33.633 -11.164  13.791  0.00  0.00    +0.017 A 
ATOM     10  C   UNL     1     -32.536 -11.302  14.661  0.00  0.00    +0.078 A 
BRANCH   5  11
ATOM     11  O   UNL     1     -30.492 -12.454  15.291  0.00  0.00    -0.489 OA
BRANCH  11  12
ATOM     12  C   UNL     1     -29.970 -13.666  15.832  0.00  0.00    +0.257 C 
BRANCH  12  13
ATOM     13  C   UNL     1     -30.922 -14.197  16.894  0.00  0.00    +0.200 C 
BRANCH  13  15
ATOM     14  C   UNL     1     -30.698 -13.556  19.093  0.00  0.00    +0.194 C 
ATOM     15  O   UNL     1     -31.188 -13.172  17.828  0.00  0.00    -0.380 OA
ENDBRANCH  13  15
ENDBRANCH  12  13
ENDBRANCH  11  12
ENDBRANCH   5  11
ENDBRANCH   1  10
BRANCH   3  16
ATOM     16  C   UNL     1     -31.044  -9.633  17.853  0.00  0.00    +0.213 C 
BRANCH  16  17
ATOM     17  C   UNL     1     -32.114  -9.300  18.878  0.00  0.00    -0.016 A 
ATOM     18  C   UNL     1     -32.839 -10.304  19.551  0.00  0.00    +0.006 A 
ATOM     19  C   UNL     1     -33.851  -9.963  20.450  0.00  0.00    +0.001 A 
ATOM     20  C   UNL     1     -34.155  -8.623  20.690  0.00  0.00    +0.012 A 
ATOM     21  C   UNL     1     -33.445  -7.604  20.035  0.00  0.00    +0.055 A 
ATOM     22  C   UNL     1     -32.445  -7.953  19.109  0.00  0.00    +0.018 A 
BRANCH  21  23
ATOM     23  C   UNL     1     -33.822  -6.162  20.274  0.00  0.00    +0.417 C 
ATOM     24  F   UNL     1     -32.873  -5.571  21.088  0.00  0.00    -0.166 F 
ATOM     25  F   UNL     1     -35.062  -6.060  20.878  0.00  0.00    -0.166 F 
ATOM     26  F   UNL     1     -33.869  -5.478  19.072  0.00  0.00    -0.166 F 
ENDBRANCH  21  23
ENDBRANCH  16  17
BRANCH  16  27
ATOM     27  C   UNL     1     -29.728 -10.048  18.465  0.00  0.00    +0.332 C 
ATOM     28  O   UNL     1     -29.496  -9.837  19.688  0.00  0.00    -0.248 OA
BRANCH  27  29
ATOM     29  O   UNL     1     -28.797 -10.737  17.679  0.00  0.00    -0.466 OA
ATOM     30  C   UNL     1     -27.657 -11.384  18.230  0.00  0.00    +0.280 C 
ENDBRANCH  27  29
ENDBRANCH  16  27
ENDBRANCH   3  16
TORSDOF 10
ENDMDL
