MODEL 1
REMARK VINA RESULT:    -4.647      0.000      0.000
REMARK INTER + INTRA:          -6.951
REMARK INTER:                  -5.869
REMARK INTRA:                  -1.082
REMARK UNBOUND:                -1.082
REMARK  Name = 
REMARK  6 active torsions:
REMARK  status: ('A' for Active; 'I' for Inactive)
REMARK    1  A    between atoms: C_1  and  O_2
REMARK    2  A    between atoms: O_2  and  C_3
REMARK    3  A    between atoms: C_5  and  C_19
REMARK    4  A    between atoms: C_8  and  C_9
REMARK    5  A    between atoms: N_11  and  C_12
REMARK    6  A    between atoms: C_19  and  O_20
REMARK                            x       y       z     vdW  Elec       q    Type
REMARK                         _______ _______ _______ _____ _____    ______ ____
ROOT
ATOM      1  C   UNL     1     -30.966 -12.846  14.817  0.00  0.00    +0.133 A 
ATOM      2  C   UNL     1     -31.754 -13.208  13.705  0.00  0.00    +0.052 A 
ATOM      3  C   UNL     1     -32.835 -12.411  13.304  0.00  0.00    -0.019 A 
ATOM      4  C   UNL     1     -33.152 -11.261  14.036  0.00  0.00    +0.007 A 
ATOM      5  C   UNL     1     -32.374 -10.887  15.132  0.00  0.00    +0.017 A 
ATOM      6  C   UNL     1     -31.267 -11.659  15.522  0.00  0.00    +0.078 A 
ENDROOT
BRANCH   6   7
ATOM      7  C   UNL     1     -30.456 -11.218  16.681  0.00  0.00    +0.248 C 
ATOM      8  O   UNL     1     -30.289  -9.983  16.882  0.00  0.00    -0.270 OA
ATOM      9  N   UNL     1     -29.827 -12.174  17.548  0.00  0.00    -0.308 N 
ATOM     10  H   UNL     1     -29.745 -13.163  17.221  0.00  0.00    +0.149 HD
BRANCH   9  11
ATOM     11  C   UNL     1     -29.045 -11.767  18.719  0.00  0.00    +0.079 C 
ATOM     12  C   UNL     1     -27.560 -12.084  18.508  0.00  0.00    +0.023 C 
ATOM     13  C   UNL     1     -27.040 -12.692  19.814  0.00  0.00    +0.002 C 
ATOM     14  C   UNL     1     -28.230 -13.358  20.492  0.00  0.00    +0.009 C 
ATOM     15  C   UNL     1     -29.415 -12.582  19.956  0.00  0.00    -0.011 C 
ATOM     16  C   UNL     1     -30.829 -13.091  20.197  0.00  0.00    +0.009 C 
ATOM     17  C   UNL     1     -30.308 -11.895  20.985  0.00  0.00    +0.009 C 
ENDBRANCH   9  11
ENDBRANCH   6   7
BRANCH   1  19
ATOM     18  C   UNL     1     -29.691 -15.004  14.856  0.00  0.00    +0.277 C 
ATOM     19  O   UNL     1     -29.904 -13.655  15.258  0.00  0.00    -0.494 OA
ENDBRANCH   1  19
BRANCH   3  20
ATOM     20  C   UNL     1     -33.692 -12.829  12.141  0.00  0.00    +0.191 C 
BRANCH  20  21
ATOM     21  O   UNL     1     -35.039 -12.864  12.524  0.00  0.00    -0.390 OA
ATOM     22  H   UNL     1     -35.107 -13.526  13.261  0.00  0.00    +0.210 HD
ENDBRANCH  20  21
ENDBRANCH   3  20
TORSDOF 5
ENDMDL
MODEL 2
REMARK VINA RESULT:    -4.480      1.949      6.618
REMARK INTER + INTRA:          -6.740
REMARK INTER:                  -5.608
REMARK INTRA:                  -1.132
REMARK UNBOUND:                -1.082
REMARK  Name = 
REMARK  6 active torsions:
REMARK  status: ('A' for Active; 'I' for Inactive)
REMARK    1  A    between atoms: C_1  and  O_2
REMARK    2  A    between atoms: O_2  and  C_3
REMARK    3  A    between atoms: C_5  and  C_19
REMARK    4  A    between atoms: C_8  and  C_9
REMARK    5  A    between atoms: N_11  and  C_12
REMARK    6  A    between atoms: C_19  and  O_20
REMARK                            x       y       z     vdW  Elec       q    Type
REMARK                         _______ _______ _______ _____ _____    ______ ____
ROOT
ATOM      1  C   UNL     1     -29.782 -12.986  17.310  0.00  0.00    +0.133 A 
ATOM      2  C   UNL     1     -29.125 -13.544  18.426  0.00  0.00    +0.052 A 
ATOM      3  C   UNL     1     -28.731 -12.738  19.503  0.00  0.00    -0.019 A 
ATOM      4  C   UNL     1     -28.966 -11.359  19.453  0.00  0.00    +0.007 A 
ATOM      5  C   UNL     1     -29.623 -10.796  18.359  0.00  0.00    +0.017 A 
ATOM      6  C   UNL     1     -30.054 -11.599  17.290  0.00  0.00    +0.078 A 
ENDROOT
BRANCH   6   7
ATOM      7  C   UNL     1     -30.765 -10.964  16.156  0.00  0.00    +0.248 C 
ATOM      8  O   UNL     1     -30.587  -9.736  15.927  0.00  0.00    -0.270 OA
ATOM      9  N   UNL     1     -31.682 -11.715  15.346  0.00  0.00    -0.308 N 
ATOM     10  H   UNL     1     -32.024 -12.636  15.705  0.00  0.00    +0.149 HD
BRANCH   9  11
ATOM     11  C   UNL     1     -32.375 -11.122  14.199  0.00  0.00    +0.079 C 
ATOM     12  C   UNL     1     -33.670 -10.438  14.652  0.00  0.00    +0.023 C 
ATOM     13  C   UNL     1     -34.756 -10.816  13.639  0.00  0.00    +0.002 C 
ATOM     14  C   UNL     1     -34.361 -12.167  13.056  0.00  0.00    +0.009 C 
ATOM     15  C   UNL     1     -32.855 -12.187  13.216  0.00  0.00    -0.011 C 
ATOM     16  C   UNL     1     -32.082 -13.476  12.979  0.00  0.00    +0.009 C 
ATOM     17  C   UNL     1     -32.032 -12.360  11.943  0.00  0.00    +0.009 C 
ENDBRANCH   9  11
ENDBRANCH   6   7
BRANCH   1  19
ATOM     18  C   UNL     1     -29.245 -14.560  15.435  0.00  0.00    +0.277 C 
ATOM     19  O   UNL     1     -30.148 -13.773  16.205  0.00  0.00    -0.494 OA
ENDBRANCH   1  19
BRANCH   3  20
ATOM     20  C   UNL     1     -27.995 -13.340  20.668  0.00  0.00    +0.191 C 
BRANCH  20  21
ATOM     21  O   UNL     1     -27.837 -14.718  20.477  0.00  0.00    -0.390 OA
ATOM     22  H   UNL     1     -26.860 -14.897  20.499  0.00  0.00    +0.210 HD
ENDBRANCH  20  21
ENDBRANCH   3  20
TORSDOF 5
ENDMDL
MODEL 3
REMARK VINA RESULT:    -4.417      2.232      6.891
REMARK INTER + INTRA:          -6.661
REMARK INTER:                  -5.661
REMARK INTRA:                  -1.000
REMARK UNBOUND:                -1.082
REMARK  Name = 
REMARK  6 active torsions:
REMARK  status: ('A' for Active; 'I' for Inactive)
REMARK    1  A    between atoms: C_1  and  O_2
REMARK    2  A    between atoms: O_2  and  C_3
REMARK    3  A    between atoms: C_5  and  C_19
REMARK    4  A    between atoms: C_8  and  C_9
REMARK    5  A    between atoms: N_11  and  C_12
REMARK    6  A    between atoms: C_19  and  O_20
REMARK                            x       y       z     vdW  Elec       q    Type
REMARK                         _______ _______ _______ _____ _____    ______ ____
ROOT
ATOM      1  C   UNL     1     -30.352 -12.390  19.404  0.00  0.00    +0.133 A 
ATOM      2  C   UNL     1     -29.772 -13.043  20.512  0.00  0.00    +0.052 A 
ATOM      3  C   UNL     1     -28.380 -13.175  20.618  0.00  0.00    -0.019 A 
ATOM      4  C   UNL     1     -27.562 -12.679  19.596  0.00  0.00    +0.007 A 
ATOM      5  C   UNL     1     -28.122 -12.024  18.500  0.00  0.00    +0.017 A 
ATOM      6  C   UNL     1     -29.513 -11.855  18.400  0.00  0.00    +0.078 A 
ENDROOT
BRANCH   6   7
ATOM      7  C   UNL     1     -30.068 -11.137  17.228  0.00  0.00    +0.248 C 
ATOM      8  O   UNL     1     -29.589 -10.013  16.911  0.00  0.00    -0.270 OA
ATOM      9  N   UNL     1     -31.166 -11.682  16.481  0.00  0.00    -0.308 N 
ATOM     10  H   UNL     1     -31.722 -12.458  16.908  0.00  0.00    +0.149 HD
BRANCH   9  11
ATOM     11  C   UNL     1     -31.714 -11.009  15.300  0.00  0.00    +0.079 C 
ATOM     12  C   UNL     1     -32.864 -10.077  15.701  0.00  0.00    +0.023 C 
ATOM     13  C   UNL     1     -33.984 -10.279  14.675  0.00  0.00    +0.002 C 
ATOM     14  C   UNL     1     -33.843 -11.700  14.144  0.00  0.00    +0.009 C 
ATOM     15  C   UNL     1     -32.371 -11.998  14.340  0.00  0.00    -0.011 C 
ATOM     16  C   UNL     1     -31.853 -13.418  14.163  0.00  0.00    +0.009 C 
ATOM     17  C   UNL     1     -31.574 -12.370  13.093  0.00  0.00    +0.009 C 
ENDBRANCH   9  11
ENDBRANCH   6   7
BRANCH   1  19
ATOM     18  C   UNL     1     -32.583 -11.457  20.063  0.00  0.00    +0.277 C 
ATOM     19  O   UNL     1     -31.746 -12.286  19.262  0.00  0.00    -0.494 OA
ENDBRANCH   1  19
BRANCH   3  20
ATOM     20  C   UNL     1     -27.776 -13.908  21.783  0.00  0.00    +0.191 C 
BRANCH  20  21
ATOM     21  O   UNL     1     -28.518 -15.062  22.062  0.00  0.00    -0.390 OA
ATOM     22  H   UNL     1     -28.235 -15.748  21.402  0.00  0.00    +0.210 HD
ENDBRANCH  20  21
ENDBRANCH   3  20
TORSDOF 5
ENDMDL
MODEL 4
REMARK VINA RESULT:    -4.388      1.214      2.812
REMARK INTER + INTRA:          -6.625
REMARK INTER:                  -5.532
REMARK INTRA:                  -1.093
REMARK UNBOUND:                -1.082
REMARK  Name = 
REMARK  6 active torsions:
REMARK  status: ('A' for Active; 'I' for Inactive)
REMARK    1  A    between atoms: C_1  and  O_2
REMARK    2  A    between atoms: O_2  and  C_3
REMARK    3  A    between atoms: C_5  and  C_19
REMARK    4  A    between atoms: C_8  and  C_9
REMARK    5  A    between atoms: N_11  and  C_12
REMARK    6  A    between atoms: C_19  and  O_20
REMARK                            x       y       z     vdW  Elec       q    Type
REMARK                         _______ _______ _______ _____ _____    ______ ____
ROOT
ATOM      1  C   UNL     1     -32.090 -11.995  15.304  0.00  0.00    +0.133 A 
ATOM      2  C   UNL     1     -32.996 -11.808  14.240  0.00  0.00    +0.052 A 
ATOM      3  C   UNL     1     -32.917 -12.599  13.085  0.00  0.00    -0.019 A 
ATOM      4  C   UNL     1     -31.907 -13.563  12.978  0.00  0.00    +0.007 A 
ATOM      5  C   UNL     1     -31.011 -13.764  14.028  0.00  0.00    +0.017 A 
ATOM      6  C   UNL     1     -31.103 -13.002  15.204  0.00  0.00    +0.078 A 
ENDROOT
BRANCH   6   7
ATOM      7  C   UNL     1     -30.142 -13.258  16.303  0.00  0.00    +0.248 C 
ATOM      8  O   UNL     1     -29.050 -13.834  16.045  0.00  0.00    -0.270 OA
ATOM      9  N   UNL     1     -30.459 -12.902  17.657  0.00  0.00    -0.308 N 
ATOM     10  H   UNL     1     -31.453 -12.685  17.896  0.00  0.00    +0.149 HD
BRANCH   9  11
ATOM     11  C   UNL     1     -29.516 -13.116  18.759  0.00  0.00    +0.079 C 
ATOM     12  C   UNL     1     -30.270 -13.468  20.047  0.00  0.00    +0.023 C 
ATOM     13  C   UNL     1     -29.621 -12.667  21.181  0.00  0.00    +0.002 C 
ATOM     14  C   UNL     1     -29.031 -11.413  20.550  0.00  0.00    +0.009 C 
ATOM     15  C   UNL     1     -28.768 -11.834  19.119  0.00  0.00    -0.011 C 
ATOM     16  C   UNL     1     -28.402 -10.790  18.075  0.00  0.00    +0.009 C 
ATOM     17  C   UNL     1     -27.329 -11.722  18.624  0.00  0.00    +0.009 C 
ENDBRANCH   9  11
ENDBRANCH   6   7
BRANCH   1  19
ATOM     18  C   UNL     1     -32.147  -9.760  16.438  0.00  0.00    +0.277 C 
ATOM     19  O   UNL     1     -32.129 -11.184  16.451  0.00  0.00    -0.494 OA
ENDBRANCH   1  19
BRANCH   3  20
ATOM     20  C   UNL     1     -33.863 -12.363  11.941  0.00  0.00    +0.191 C 
BRANCH  20  21
ATOM     21  O   UNL     1     -35.062 -11.816  12.413  0.00  0.00    -0.390 OA
ATOM     22  H   UNL     1     -35.594 -12.571  12.777  0.00  0.00    +0.210 HD
ENDBRANCH  20  21
ENDBRANCH   3  20
TORSDOF 5
ENDMDL
MODEL 5
REMARK VINA RESULT:    -4.094      1.174      2.352
REMARK INTER + INTRA:          -6.253
REMARK INTER:                  -5.609
REMARK INTRA:                  -0.644
REMARK UNBOUND:                -1.082
REMARK  Name = 
REMARK  6 active torsions:
REMARK  status: ('A' for Active; 'I' for Inactive)
REMARK    1  A    between atoms: C_1  and  O_2
REMARK    2  A    between atoms: O_2  and  C_3
REMARK    3  A    between atoms: C_5  and  C_19
REMARK    4  A    between atoms: C_8  and  C_9
REMARK    5  A    between atoms: N_11  and  C_12
REMARK    6  A    between atoms: C_19  and  O_20
REMARK                            x       y       z     vdW  Elec       q    Type
REMARK                         _______ _______ _______ _____ _____    ______ ____
ROOT
ATOM      1  C   UNL     1     -32.512 -10.737  15.278  0.00  0.00    +0.133 A 
ATOM      2  C   UNL     1     -33.323 -11.144  14.199  0.00  0.00    +0.052 A 
ATOM      3  C   UNL     1     -32.987 -12.271  13.435  0.00  0.00    -0.019 A 
ATOM      4  C   UNL     1     -31.816 -12.978  13.730  0.00  0.00    +0.007 A 
ATOM      5  C   UNL     1     -31.010 -12.591  14.801  0.00  0.00    +0.017 A 
ATOM      6  C   UNL     1     -31.356 -11.485  15.595  0.00  0.00    +0.078 A 
ENDROOT
BRANCH   6   7
ATOM      7  C   UNL     1     -30.482 -11.117  16.734  0.00  0.00    +0.248 C 
ATOM      8  O   UNL     1     -30.060  -9.932  16.829  0.00  0.00    -0.270 OA
ATOM      9  N   UNL     1     -30.077 -12.099  17.700  0.00  0.00    -0.308 N 
ATOM     10  H   UNL     1     -30.202 -13.110  17.465  0.00  0.00    +0.149 HD
BRANCH   9  11
ATOM     11  C   UNL     1     -29.239 -11.757  18.853  0.00  0.00    +0.079 C 
ATOM     12  C   UNL     1     -27.857 -12.407  18.721  0.00  0.00    +0.023 C 
ATOM     13  C   UNL     1     -27.497 -12.981  20.095  0.00  0.00    +0.002 C 
ATOM     14  C   UNL     1     -28.812 -13.305  20.793  0.00  0.00    +0.009 C 
ATOM     15  C   UNL     1     -29.792 -12.348  20.148  0.00  0.00    -0.011 C 
ATOM     16  C   UNL     1     -31.286 -12.513  20.389  0.00  0.00    +0.009 C 
ATOM     17  C   UNL     1     -30.526 -11.386  21.078  0.00  0.00    +0.009 C 
ENDBRANCH   9  11
ENDBRANCH   6   7
BRANCH   1  19
ATOM     18  C   UNL     1     -34.005  -8.821  15.896  0.00  0.00    +0.277 C 
ATOM     19  O   UNL     1     -32.813  -9.587  16.028  0.00  0.00    -0.494 OA
ENDBRANCH   1  19
BRANCH   3  20
ATOM     20  C   UNL     1     -33.838 -12.671  12.263  0.00  0.00    +0.191 C 
BRANCH  20  21
ATOM     21  O   UNL     1     -35.062 -11.991  12.302  0.00  0.00    -0.390 OA
ATOM     22  H   UNL     1     -35.533 -12.205  11.455  0.00  0.00    +0.210 HD
ENDBRANCH  20  21
ENDBRANCH   3  20
TORSDOF 5
ENDMDL
MODEL 6
REMARK VINA RESULT:    -3.910      2.503      6.263
REMARK INTER + INTRA:          -6.021
REMARK INTER:                  -4.903
REMARK INTRA:                  -1.118
REMARK UNBOUND:                -1.082
REMARK  Name = 
REMARK  6 active torsions:
REMARK  status: ('A' for Active; 'I' for Inactive)
REMARK    1  A    between atoms: C_1  and  O_2
REMARK    2  A    between atoms: O_2  and  C_3
REMARK    3  A    between atoms: C_5  and  C_19
REMARK    4  A    between atoms: C_8  and  C_9
REMARK    5  A    between atoms: N_11  and  C_12
REMARK    6  A    between atoms: C_19  and  O_20
REMARK                            x       y       z     vdW  Elec       q    Type
REMARK                         _______ _______ _______ _____ _____    ______ ____
ROOT
ATOM      1  C   UNL     1     -30.409 -10.559  18.358  0.00  0.00    +0.133 A 
ATOM      2  C   UNL     1     -30.227  -9.446  19.205  0.00  0.00    +0.052 A 
ATOM      3  C   UNL     1     -31.327  -8.800  19.785  0.00  0.00    -0.019 A 
ATOM      4  C   UNL     1     -32.621  -9.247  19.494  0.00  0.00    +0.007 A 
ATOM      5  C   UNL     1     -32.814 -10.353  18.666  0.00  0.00    +0.017 A 
ATOM      6  C   UNL     1     -31.717 -11.030  18.107  0.00  0.00    +0.078 A 
ENDROOT
BRANCH   6   7
ATOM      7  C   UNL     1     -31.965 -12.211  17.246  0.00  0.00    +0.248 C 
ATOM      8  O   UNL     1     -32.953 -12.956  17.492  0.00  0.00    -0.270 OA
ATOM      9  N   UNL     1     -31.074 -12.539  16.170  0.00  0.00    -0.308 N 
ATOM     10  H   UNL     1     -30.132 -12.087  16.148  0.00  0.00    +0.149 HD
BRANCH   9  11
ATOM     11  C   UNL     1     -31.311 -13.682  15.283  0.00  0.00    +0.079 C 
ATOM     12  C   UNL     1     -30.119 -14.645  15.323  0.00  0.00    +0.023 C 
ATOM     13  C   UNL     1     -29.830 -15.062  13.877  0.00  0.00    +0.002 C 
ATOM     14  C   UNL     1     -30.302 -13.919  12.988  0.00  0.00    +0.009 C 
ATOM     15  C   UNL     1     -31.381 -13.256  13.819  0.00  0.00    -0.011 C 
ATOM     16  C   UNL     1     -31.947 -11.909  13.394  0.00  0.00    +0.009 C 
ATOM     17  C   UNL     1     -32.772 -13.175  13.198  0.00  0.00    +0.009 C 
ENDBRANCH   9  11
ENDBRANCH   6   7
BRANCH   1  19
ATOM     18  C   UNL     1     -28.081 -11.489  18.372  0.00  0.00    +0.277 C 
ATOM     19  O   UNL     1     -29.320 -11.193  17.735  0.00  0.00    -0.494 OA
ENDBRANCH   1  19
BRANCH   3  20
ATOM     20  C   UNL     1     -31.121  -7.590  20.654  0.00  0.00    +0.191 C 
BRANCH  20  21
ATOM     21  O   UNL     1     -29.776  -7.202  20.628  0.00  0.00    -0.390 OA
ATOM     22  H   UNL     1     -29.662  -6.627  19.826  0.00  0.00    +0.210 HD
ENDBRANCH  20  21
ENDBRANCH   3  20
TORSDOF 5
ENDMDL
MODEL 7
REMARK VINA RESULT:    -3.894      3.381      5.093
REMARK INTER + INTRA:          -6.001
REMARK INTER:                  -4.890
REMARK INTRA:                  -1.111
REMARK UNBOUND:                -1.082
REMARK  Name = 
REMARK  6 active torsions:
REMARK  status: ('A' for Active; 'I' for Inactive)
REMARK    1  A    between atoms: C_1  and  O_2
REMARK    2  A    between atoms: O_2  and  C_3
REMARK    3  A    between atoms: C_5  and  C_19
REMARK    4  A    between atoms: C_8  and  C_9
REMARK    5  A    between atoms: N_11  and  C_12
REMARK    6  A    between atoms: C_19  and  O_20
REMARK                            x       y       z     vdW  Elec       q    Type
REMARK                         _______ _______ _______ _____ _____    ______ ____
ROOT
ATOM      1  C   UNL     1     -31.311 -13.151  17.873  0.00  0.00    +0.133 A 
ATOM      2  C   UNL     1     -30.331 -13.937  17.233  0.00  0.00    +0.052 A 
ATOM      3  C   UNL     1     -30.266 -14.002  15.834  0.00  0.00    -0.019 A 
ATOM      4  C   UNL     1     -31.205 -13.302  15.068  0.00  0.00    +0.007 A 
ATOM      5  C   UNL     1     -32.173 -12.513  15.689  0.00  0.00    +0.017 A 
ATOM      6  C   UNL     1     -32.226 -12.412  17.089  0.00  0.00    +0.078 A 
ENDROOT
BRANCH   6   7
ATOM      7  C   UNL     1     -33.259 -11.549  17.709  0.00  0.00    +0.248 C 
ATOM      8  O   UNL     1     -34.401 -11.478  17.178  0.00  0.00    -0.270 OA
ATOM      9  N   UNL     1     -32.962 -10.764  18.874  0.00  0.00    -0.308 N 
ATOM     10  H   UNL     1     -31.961 -10.621  19.135  0.00  0.00    +0.149 HD
BRANCH   9  11
ATOM     11  C   UNL     1     -33.973  -9.926  19.526  0.00  0.00    +0.079 C 
ATOM     12  C   UNL     1     -33.975  -8.519  18.917  0.00  0.00    +0.023 C 
ATOM     13  C   UNL     1     -34.073  -7.526  20.079  0.00  0.00    +0.002 C 
ATOM     14  C   UNL     1     -33.453  -8.208  21.292  0.00  0.00    +0.009 C 
ATOM     15  C   UNL     1     -33.640  -9.682  20.996  0.00  0.00    -0.011 C 
ATOM     16  C   UNL     1     -32.935 -10.725  21.851  0.00  0.00    +0.009 C 
ATOM     17  C   UNL     1     -34.432 -10.492  22.018  0.00  0.00    +0.009 C 
ENDBRANCH   9  11
ENDBRANCH   6   7
BRANCH   1  19
ATOM     18  C   UNL     1     -30.310 -13.097  20.171  0.00  0.00    +0.277 C 
ATOM     19  O   UNL     1     -31.416 -13.107  19.274  0.00  0.00    -0.494 OA
ENDBRANCH   1  19
BRANCH   3  20
ATOM     20  C   UNL     1     -29.242 -14.876  15.165  0.00  0.00    +0.191 C 
BRANCH  20  21
ATOM     21  O   UNL     1     -27.995 -14.718  15.783  0.00  0.00    -0.390 OA
ATOM     22  H   UNL     1     -28.162 -14.724  16.762  0.00  0.00    +0.210 HD
ENDBRANCH  20  21
ENDBRANCH   3  20
TORSDOF 5
ENDMDL
MODEL 8
REMARK VINA RESULT:    -3.784      2.395      6.534
REMARK INTER + INTRA:          -5.862
REMARK INTER:                  -5.011
REMARK INTRA:                  -0.851
REMARK UNBOUND:                -1.082
REMARK  Name = 
REMARK  6 active torsions:
REMARK  status: ('A' for Active; 'I' for Inactive)
REMARK    1  A    between atoms: C_1  and  O_2
REMARK    2  A    between atoms: O_2  and  C_3
REMARK    3  A    between atoms: C_5  and  C_19
REMARK    4  A    between atoms: C_8  and  C_9
REMARK    5  A    between atoms: N_11  and  C_12
REMARK    6  A    between atoms: C_19  and  O_20
REMARK                            x       y       z     vdW  Elec       q    Type
REMARK                         _______ _______ _______ _____ _____    ______ ____
ROOT
ATOM      1  C   UNL     1     -30.319 -11.347  18.288  0.00  0.00    +0.133 A 
ATOM      2  C   UNL     1     -30.234 -10.451  19.374  0.00  0.00    +0.052 A 
ATOM      3  C   UNL     1     -30.356 -10.911  20.693  0.00  0.00    -0.019 A 
ATOM      4  C   UNL     1     -30.596 -12.270  20.929  0.00  0.00    +0.007 A 
ATOM      5  C   UNL     1     -30.673 -13.167  19.863  0.00  0.00    +0.017 A 
ATOM      6  C   UNL     1     -30.516 -12.723  18.540  0.00  0.00    +0.078 A 
ENDROOT
BRANCH   6   7
ATOM      7  C   UNL     1     -30.587 -13.711  17.438  0.00  0.00    +0.248 C 
ATOM      8  O   UNL     1     -30.614 -14.942  17.715  0.00  0.00    -0.270 OA
ATOM      9  N   UNL     1     -30.579 -13.288  16.066  0.00  0.00    -0.308 N 
ATOM     10  H   UNL     1     -30.284 -12.309  15.849  0.00  0.00    +0.149 HD
BRANCH   9  11
ATOM     11  C   UNL     1     -30.680 -14.241  14.956  0.00  0.00    +0.079 C 
ATOM     12  C   UNL     1     -29.362 -15.005  14.788  0.00  0.00    +0.023 C 
ATOM     13  C   UNL     1     -29.064 -15.062  13.286  0.00  0.00    +0.002 C 
ATOM     14  C   UNL     1     -29.723 -13.839  12.662  0.00  0.00    +0.009 C 
ATOM     15  C   UNL     1     -30.858 -13.531  13.617  0.00  0.00    -0.011 C 
ATOM     16  C   UNL     1     -31.625 -12.222  13.490  0.00  0.00    +0.009 C 
ATOM     17  C   UNL     1     -32.266 -13.525  13.030  0.00  0.00    +0.009 C 
ENDBRANCH   9  11
ENDBRANCH   6   7
BRANCH   1  19
ATOM     18  C   UNL     1     -30.975  -9.799  16.428  0.00  0.00    +0.277 C 
ATOM     19  O   UNL     1     -30.239 -10.897  16.959  0.00  0.00    -0.494 OA
ENDBRANCH   1  19
BRANCH   3  20
ATOM     20  C   UNL     1     -30.304  -9.941  21.840  0.00  0.00    +0.191 C 
BRANCH  20  21
ATOM     21  O   UNL     1     -29.941  -8.669  21.379  0.00  0.00    -0.390 OA
ATOM     22  H   UNL     1     -29.815  -8.101  22.183  0.00  0.00    +0.210 HD
ENDBRANCH  20  21
ENDBRANCH   3  20
TORSDOF 5
ENDMDL
MODEL 9
REMARK VINA RESULT:    -3.779      1.555      2.360
REMARK INTER + INTRA:          -5.855
REMARK INTER:                  -5.237
REMARK INTRA:                  -0.618
REMARK UNBOUND:                -1.082
REMARK  Name = 
REMARK  6 active torsions:
REMARK  status: ('A' for Active; 'I' for Inactive)
REMARK    1  A    between atoms: C_1  and  O_2
REMARK    2  A    between atoms: O_2  and  C_3
REMARK    3  A    between atoms: C_5  and  C_19
REMARK    4  A    between atoms: C_8  and  C_9
REMARK    5  A    between atoms: N_11  and  C_12
REMARK    6  A    between atoms: C_19  and  O_20
REMARK                            x       y       z     vdW  Elec       q    Type
REMARK                         _______ _______ _______ _____ _____    ______ ____
ROOT
ATOM      1  C   UNL     1     -31.140 -13.903  14.756  0.00  0.00    +0.133 A 
ATOM      2  C   UNL     1     -31.640 -13.601  13.472  0.00  0.00    +0.052 A 
ATOM      3  C   UNL     1     -32.677 -12.672  13.308  0.00  0.00    -0.019 A 
ATOM      4  C   UNL     1     -33.241 -12.062  14.434  0.00  0.00    +0.007 A 
ATOM      5  C   UNL     1     -32.750 -12.345  15.708  0.00  0.00    +0.017 A 
ATOM      6  C   UNL     1     -31.687 -13.248  15.883  0.00  0.00    +0.078 A 
ENDROOT
BRANCH   6   7
ATOM      7  C   UNL     1     -31.183 -13.507  17.252  0.00  0.00    +0.248 C 
ATOM      8  O   UNL     1     -30.962 -14.696  17.612  0.00  0.00    -0.270 OA
ATOM      9  N   UNL     1     -30.985 -12.431  18.181  0.00  0.00    -0.308 N 
ATOM     10  H   UNL     1     -31.422 -11.506  17.971  0.00  0.00    +0.149 HD
BRANCH   9  11
ATOM     11  C   UNL     1     -30.458 -12.655  19.531  0.00  0.00    +0.079 C 
ATOM     12  C   UNL     1     -31.439 -12.124  20.583  0.00  0.00    +0.023 C 
ATOM     13  C   UNL     1     -30.610 -11.380  21.635  0.00  0.00    +0.002 C 
ATOM     14  C   UNL     1     -29.359 -10.872  20.929  0.00  0.00    +0.009 C 
ATOM     15  C   UNL     1     -29.188 -11.846  19.782  0.00  0.00    -0.011 C 
ATOM     16  C   UNL     1     -28.185 -11.550  18.677  0.00  0.00    +0.009 C 
ATOM     17  C   UNL     1     -27.869 -12.611  19.723  0.00  0.00    +0.009 C 
ENDBRANCH   9  11
ENDBRANCH   6   7
BRANCH   1  19
ATOM     18  C   UNL     1     -28.806 -14.755  14.428  0.00  0.00    +0.277 C 
ATOM     19  O   UNL     1     -30.130 -14.861  14.943  0.00  0.00    -0.494 OA
ENDBRANCH   1  19
BRANCH   3  20
ATOM     20  C   UNL     1     -33.228 -12.389  11.938  0.00  0.00    +0.191 C 
BRANCH  20  21
ATOM     21  O   UNL     1     -34.604 -12.137  12.014  0.00  0.00    -0.390 OA
ATOM     22  H   UNL     1     -34.709 -11.289  12.520  0.00  0.00    +0.210 HD
ENDBRANCH  20  21
ENDBRANCH   3  20
TORSDOF 5
ENDMDL
