MODEL 1
REMARK VINA RESULT:    -4.431      0.000      0.000
REMARK INTER + INTRA:          -9.383
REMARK INTER:                  -6.245
REMARK INTRA:                  -3.138
REMARK UNBOUND:                -3.138
REMARK  Name = 
REMARK  8 active torsions:
REMARK  status: ('A' for Active; 'I' for Inactive)
REMARK    1  A    between atoms: C_1  and  O_2
REMARK    2  A    between atoms: O_2  and  C_3
REMARK    3  A    between atoms: C_6  and  S_9
REMARK    4  A    between atoms: S_9  and  N_12
REMARK    5  A    between atoms: N_12  and  C_13
REMARK    6  A    between atoms: C_13  and  C_14
REMARK    7  A    between atoms: C_14  and  C_15
REMARK    8  A    between atoms: C_18  and  C_21
REMARK                            x       y       z     vdW  Elec       q    Type
REMARK                         _______ _______ _______ _____ _____    ______ ____
ROOT
ATOM      1  N   UNL     1     -31.679  -8.374  18.200  0.00  0.00    -0.190 NA
ATOM      2  H   UNL     1     -31.182  -8.981  17.508  0.00  0.00    +0.148 HD
ENDROOT
BRANCH   1   3
ATOM      3  S   UNL     1     -31.010  -8.764  19.755  0.00  0.00    +0.058 S 
ATOM      4  O   UNL     1     -32.122  -9.056  20.723  0.00  0.00    -0.153 OA
ATOM      5  O   UNL     1     -30.226  -7.588  20.266  0.00  0.00    -0.153 OA
BRANCH   3   9
ATOM      6  C   UNL     1     -28.248 -12.391  19.355  0.00  0.00    +0.120 A 
ATOM      7  C   UNL     1     -28.258 -11.387  18.369  0.00  0.00    +0.047 A 
ATOM      8  C   UNL     1     -29.098 -10.277  18.503  0.00  0.00    +0.032 A 
ATOM      9  C   UNL     1     -29.933 -10.153  19.619  0.00  0.00    +0.105 A 
ATOM     10  C   UNL     1     -29.928 -11.154  20.600  0.00  0.00    +0.032 A 
ATOM     11  C   UNL     1     -29.088 -12.263  20.468  0.00  0.00    +0.047 A 
BRANCH   6  13
ATOM     12  C   UNL     1     -26.547 -13.959  20.302  0.00  0.00    +0.277 C 
ATOM     13  O   UNL     1     -27.424 -13.523  19.269  0.00  0.00    -0.495 OA
ENDBRANCH   6  13
ENDBRANCH   3   9
ENDBRANCH   1   3
BRANCH   1  14
ATOM     14  C   UNL     1     -33.104  -8.718  18.176  0.00  0.00    +0.110 C 
BRANCH  14  15
ATOM     15  C   UNL     1     -33.464  -9.462  16.886  0.00  0.00    +0.052 C 
BRANCH  15  16
ATOM     16  C   UNL     1     -32.646 -10.717  16.719  0.00  0.00    -0.046 A 
ATOM     17  C   UNL     1     -31.704 -10.820  15.684  0.00  0.00    +0.004 A 
ATOM     18  C   UNL     1     -30.926 -11.973  15.550  0.00  0.00    +0.012 A 
ATOM     19  C   UNL     1     -31.088 -13.050  16.441  0.00  0.00    +0.055 A 
ATOM     20  C   UNL     1     -32.008 -12.928  17.496  0.00  0.00    +0.012 A 
ATOM     21  C   UNL     1     -32.784 -11.774  17.631  0.00  0.00    +0.004 A 
BRANCH  19  22
ATOM     22  C   UNL     1     -30.216 -14.275  16.327  0.00  0.00    +0.417 C 
ATOM     23  F   UNL     1     -28.894 -13.922  16.131  0.00  0.00    -0.166 F 
ATOM     24  F   UNL     1     -30.618 -15.059  15.259  0.00  0.00    -0.166 F 
ATOM     25  F   UNL     1     -30.318 -15.015  17.491  0.00  0.00    -0.166 F 
ENDBRANCH  19  22
ENDBRANCH  15  16
ENDBRANCH  14  15
ENDBRANCH   1  14
TORSDOF 7
ENDMDL
MODEL 2
REMARK VINA RESULT:    -4.385      2.020      4.217
REMARK INTER + INTRA:          -9.318
REMARK INTER:                  -5.992
REMARK INTRA:                  -3.326
REMARK UNBOUND:                -3.138
REMARK  Name = 
REMARK  8 active torsions:
REMARK  status: ('A' for Active; 'I' for Inactive)
REMARK    1  A    between atoms: C_1  and  O_2
REMARK    2  A    between atoms: O_2  and  C_3
REMARK    3  A    between atoms: C_6  and  S_9
REMARK    4  A    between atoms: S_9  and  N_12
REMARK    5  A    between atoms: N_12  and  C_13
REMARK    6  A    between atoms: C_13  and  C_14
REMARK    7  A    between atoms: C_14  and  C_15
REMARK    8  A    between atoms: C_18  and  C_21
REMARK                            x       y       z     vdW  Elec       q    Type
REMARK                         _______ _______ _______ _____ _____    ______ ____
ROOT
ATOM      1  N   UNL     1     -29.455 -10.134  20.714  0.00  0.00    -0.190 NA
ATOM      2  H   UNL     1     -28.885  -9.564  21.380  0.00  0.00    +0.148 HD
ENDROOT
BRANCH   1   3
ATOM      3  S   UNL     1     -30.721  -9.091  20.142  0.00  0.00    +0.058 S 
ATOM      4  O   UNL     1     -30.240  -7.667  20.146  0.00  0.00    -0.153 OA
ATOM      5  O   UNL     1     -31.905  -9.199  21.061  0.00  0.00    -0.153 OA
BRANCH   3   9
ATOM      6  C   UNL     1     -32.006 -10.391  15.946  0.00  0.00    +0.120 A 
ATOM      7  C   UNL     1     -32.944 -10.326  16.995  0.00  0.00    +0.047 A 
ATOM      8  C   UNL     1     -32.545  -9.919  18.271  0.00  0.00    +0.032 A 
ATOM      9  C   UNL     1     -31.212  -9.569  18.518  0.00  0.00    +0.105 A 
ATOM     10  C   UNL     1     -30.276  -9.638  17.478  0.00  0.00    +0.032 A 
ATOM     11  C   UNL     1     -30.674 -10.043  16.200  0.00  0.00    +0.047 A 
BRANCH   6  13
ATOM     12  C   UNL     1     -33.300 -11.813  14.349  0.00  0.00    +0.277 C 
ATOM     13  O   UNL     1     -32.354 -10.791  14.648  0.00  0.00    -0.495 OA
ENDBRANCH   6  13
ENDBRANCH   3   9
ENDBRANCH   1   3
BRANCH   1  14
ATOM     14  C   UNL     1     -30.037 -11.260  21.450  0.00  0.00    +0.110 C 
BRANCH  14  15
ATOM     15  C   UNL     1     -29.336 -12.572  21.082  0.00  0.00    +0.052 C 
BRANCH  15  16
ATOM     16  C   UNL     1     -29.564 -12.941  19.639  0.00  0.00    -0.046 A 
ATOM     17  C   UNL     1     -28.499 -12.927  18.724  0.00  0.00    +0.004 A 
ATOM     18  C   UNL     1     -28.707 -13.299  17.393  0.00  0.00    +0.012 A 
ATOM     19  C   UNL     1     -29.987 -13.677  16.950  0.00  0.00    +0.055 A 
ATOM     20  C   UNL     1     -31.042 -13.723  17.877  0.00  0.00    +0.012 A 
ATOM     21  C   UNL     1     -30.834 -13.354  19.208  0.00  0.00    +0.004 A 
BRANCH  19  22
ATOM     22  C   UNL     1     -30.204 -14.124  15.526  0.00  0.00    +0.417 C 
ATOM     23  F   UNL     1     -29.258 -15.062  15.156  0.00  0.00    -0.166 F 
ATOM     24  F   UNL     1     -30.109 -13.048  14.660  0.00  0.00    -0.166 F 
ATOM     25  F   UNL     1     -31.463 -14.684  15.412  0.00  0.00    -0.166 F 
ENDBRANCH  19  22
ENDBRANCH  15  16
ENDBRANCH  14  15
ENDBRANCH   1  14
TORSDOF 7
ENDMDL
MODEL 3
REMARK VINA RESULT:    -4.361      2.972      4.581
REMARK INTER + INTRA:          -9.284
REMARK INTER:                  -5.857
REMARK INTRA:                  -3.427
REMARK UNBOUND:                -3.138
REMARK  Name = 
REMARK  8 active torsions:
REMARK  status: ('A' for Active; 'I' for Inactive)
REMARK    1  A    between atoms: C_1  and  O_2
REMARK    2  A    between atoms: O_2  and  C_3
REMARK    3  A    between atoms: C_6  and  S_9
REMARK    4  A    between atoms: S_9  and  N_12
REMARK    5  A    between atoms: N_12  and  C_13
REMARK    6  A    between atoms: C_13  and  C_14
REMARK    7  A    between atoms: C_14  and  C_15
REMARK    8  A    between atoms: C_18  and  C_21
REMARK                            x       y       z     vdW  Elec       q    Type
REMARK                         _______ _______ _______ _____ _____    ______ ____
ROOT
ATOM      1  N   UNL     1     -28.889 -11.354  19.950  0.00  0.00    -0.190 NA
ATOM      2  H   UNL     1     -28.663 -11.074  18.968  0.00  0.00    +0.148 HD
ENDROOT
BRANCH   1   3
ATOM      3  S   UNL     1     -29.298 -13.041  19.891  0.00  0.00    +0.058 S 
ATOM      4  O   UNL     1     -30.384 -13.330  20.890  0.00  0.00    -0.153 OA
ATOM      5  O   UNL     1     -28.088 -13.857  20.249  0.00  0.00    -0.153 OA
BRANCH   3   9
ATOM      6  C   UNL     1     -30.670 -14.241  15.693  0.00  0.00    +0.120 A 
ATOM      7  C   UNL     1     -31.562 -14.295  16.781  0.00  0.00    +0.047 A 
ATOM      8  C   UNL     1     -31.138 -13.918  18.059  0.00  0.00    +0.032 A 
ATOM      9  C   UNL     1     -29.825 -13.480  18.268  0.00  0.00    +0.105 A 
ATOM     10  C   UNL     1     -28.934 -13.430  17.187  0.00  0.00    +0.032 A 
ATOM     11  C   UNL     1     -29.357 -13.805  15.909  0.00  0.00    +0.047 A 
BRANCH   6  13
ATOM     12  C   UNL     1     -30.278 -14.329  13.226  0.00  0.00    +0.277 C 
ATOM     13  O   UNL     1     -31.045 -14.607  14.393  0.00  0.00    -0.495 OA
ENDBRANCH   6  13
ENDBRANCH   3   9
ENDBRANCH   1   3
BRANCH   1  14
ATOM     14  C   UNL     1     -30.051 -10.579  20.396  0.00  0.00    +0.110 C 
BRANCH  14  15
ATOM     15  C   UNL     1     -30.300  -9.387  19.467  0.00  0.00    +0.052 C 
BRANCH  15  16
ATOM     16  C   UNL     1     -31.002  -9.804  18.200  0.00  0.00    -0.046 A 
ATOM     17  C   UNL     1     -30.311  -9.829  16.979  0.00  0.00    +0.004 A 
ATOM     18  C   UNL     1     -30.956 -10.245  15.811  0.00  0.00    +0.012 A 
ATOM     19  C   UNL     1     -32.309 -10.629  15.841  0.00  0.00    +0.055 A 
ATOM     20  C   UNL     1     -32.987 -10.635  17.072  0.00  0.00    +0.012 A 
ATOM     21  C   UNL     1     -32.341 -10.221  18.240  0.00  0.00    +0.004 A 
BRANCH  19  22
ATOM     22  C   UNL     1     -32.993 -11.123  14.592  0.00  0.00    +0.417 C 
ATOM     23  F   UNL     1     -33.780 -12.227  14.866  0.00  0.00    -0.166 F 
ATOM     24  F   UNL     1     -32.058 -11.485  13.637  0.00  0.00    -0.166 F 
ATOM     25  F   UNL     1     -33.791 -10.116  14.082  0.00  0.00    -0.166 F 
ENDBRANCH  19  22
ENDBRANCH  15  16
ENDBRANCH  14  15
ENDBRANCH   1  14
TORSDOF 7
ENDMDL
MODEL 4
REMARK VINA RESULT:    -4.232      3.171      5.118
REMARK INTER + INTRA:          -9.102
REMARK INTER:                  -6.271
REMARK INTRA:                  -2.831
REMARK UNBOUND:                -3.138
REMARK  Name = 
REMARK  8 active torsions:
REMARK  status: ('A' for Active; 'I' for Inactive)
REMARK    1  A    between atoms: C_1  and  O_2
REMARK    2  A    between atoms: O_2  and  C_3
REMARK    3  A    between atoms: C_6  and  S_9
REMARK    4  A    between atoms: S_9  and  N_12
REMARK    5  A    between atoms: N_12  and  C_13
REMARK    6  A    between atoms: C_13  and  C_14
REMARK    7  A    between atoms: C_14  and  C_15
REMARK    8  A    between atoms: C_18  and  C_21
REMARK                            x       y       z     vdW  Elec       q    Type
REMARK                         _______ _______ _______ _____ _____    ______ ____
ROOT
ATOM      1  N   UNL     1     -28.051 -13.212  17.917  0.00  0.00    -0.190 NA
ATOM      2  H   UNL     1     -27.324 -13.837  18.335  0.00  0.00    +0.148 HD
ENDROOT
BRANCH   1   3
ATOM      3  S   UNL     1     -27.883 -11.675  18.707  0.00  0.00    +0.058 S 
ATOM      4  O   UNL     1     -26.667 -10.967  18.177  0.00  0.00    -0.153 OA
ATOM      5  O   UNL     1     -27.705 -11.893  20.183  0.00  0.00    -0.153 OA
BRANCH   3   9
ATOM      6  C   UNL     1     -31.665  -9.187  18.032  0.00  0.00    +0.120 A 
ATOM      7  C   UNL     1     -31.357  -9.691  19.310  0.00  0.00    +0.047 A 
ATOM      8  C   UNL     1     -30.195 -10.441  19.511  0.00  0.00    +0.032 A 
ATOM      9  C   UNL     1     -29.326 -10.697  18.443  0.00  0.00    +0.105 A 
ATOM     10  C   UNL     1     -29.632 -10.202  17.169  0.00  0.00    +0.032 A 
ATOM     11  C   UNL     1     -30.793  -9.450  16.968  0.00  0.00    +0.047 A 
BRANCH   6  13
ATOM     12  C   UNL     1     -34.115  -8.749  18.268  0.00  0.00    +0.277 C 
ATOM     13  O   UNL     1     -32.816  -8.428  17.779  0.00  0.00    -0.495 OA
ENDBRANCH   6  13
ENDBRANCH   3   9
ENDBRANCH   1   3
BRANCH   1  14
ATOM     14  C   UNL     1     -29.371 -13.778  18.213  0.00  0.00    +0.110 C 
BRANCH  14  15
ATOM     15  C   UNL     1     -29.983 -14.416  16.961  0.00  0.00    +0.052 C 
BRANCH  15  16
ATOM     16  C   UNL     1     -31.067 -13.553  16.368  0.00  0.00    -0.046 A 
ATOM     17  C   UNL     1     -32.181 -13.181  17.137  0.00  0.00    +0.004 A 
ATOM     18  C   UNL     1     -33.170 -12.356  16.593  0.00  0.00    +0.012 A 
ATOM     19  C   UNL     1     -33.069 -11.901  15.266  0.00  0.00    +0.055 A 
ATOM     20  C   UNL     1     -31.935 -12.249  14.512  0.00  0.00    +0.012 A 
ATOM     21  C   UNL     1     -30.946 -13.071  15.056  0.00  0.00    +0.004 A 
BRANCH  19  22
ATOM     22  C   UNL     1     -34.110 -10.973  14.693  0.00  0.00    +0.417 C 
ATOM     23  F   UNL     1     -33.532  -9.794  14.258  0.00  0.00    -0.166 F 
ATOM     24  F   UNL     1     -35.061 -10.661  15.649  0.00  0.00    -0.166 F 
ATOM     25  F   UNL     1     -34.731 -11.591  13.623  0.00  0.00    -0.166 F 
ENDBRANCH  19  22
ENDBRANCH  15  16
ENDBRANCH  14  15
ENDBRANCH   1  14
TORSDOF 7
ENDMDL
MODEL 5
REMARK VINA RESULT:    -4.129      3.333      5.203
REMARK INTER + INTRA:          -8.957
REMARK INTER:                  -5.501
REMARK INTRA:                  -3.456
REMARK UNBOUND:                -3.138
REMARK  Name = 
REMARK  8 active torsions:
REMARK  status: ('A' for Active; 'I' for Inactive)
REMARK    1  A    between atoms: C_1  and  O_2
REMARK    2  A    between atoms: O_2  and  C_3
REMARK    3  A    between atoms: C_6  and  S_9
REMARK    4  A    between atoms: S_9  and  N_12
REMARK    5  A    between atoms: N_12  and  C_13
REMARK    6  A    between atoms: C_13  and  C_14
REMARK    7  A    between atoms: C_14  and  C_15
REMARK    8  A    between atoms: C_18  and  C_21
REMARK                            x       y       z     vdW  Elec       q    Type
REMARK                         _______ _______ _______ _____ _____    ______ ____
ROOT
ATOM      1  N   UNL     1     -29.725 -14.456  17.941  0.00  0.00    -0.190 NA
ATOM      2  H   UNL     1     -30.730 -14.346  18.207  0.00  0.00    +0.148 HD
ENDROOT
BRANCH   1   3
ATOM      3  S   UNL     1     -28.846 -13.275  18.863  0.00  0.00    +0.058 S 
ATOM      4  O   UNL     1     -27.731 -12.712  18.026  0.00  0.00    -0.153 OA
ATOM      5  O   UNL     1     -28.250 -13.934  20.074  0.00  0.00    -0.153 OA
BRANCH   3   9
ATOM      6  C   UNL     1     -31.620  -9.916  20.268  0.00  0.00    +0.120 A 
ATOM      7  C   UNL     1     -30.420  -9.620  19.594  0.00  0.00    +0.047 A 
ATOM      8  C   UNL     1     -29.583 -10.651  19.159  0.00  0.00    +0.032 A 
ATOM      9  C   UNL     1     -29.930 -11.988  19.387  0.00  0.00    +0.105 A 
ATOM     10  C   UNL     1     -31.122 -12.286  20.062  0.00  0.00    +0.032 A 
ATOM     11  C   UNL     1     -31.961 -11.255  20.496  0.00  0.00    +0.047 A 
BRANCH   6  13
ATOM     12  C   UNL     1     -33.899  -9.092  20.881  0.00  0.00    +0.277 C 
ATOM     13  O   UNL     1     -32.494  -8.919  20.723  0.00  0.00    -0.495 OA
ENDBRANCH   6  13
ENDBRANCH   3   9
ENDBRANCH   1   3
BRANCH   1  14
ATOM     14  C   UNL     1     -29.591 -14.165  16.510  0.00  0.00    +0.110 C 
BRANCH  14  15
ATOM     15  C   UNL     1     -30.965 -14.127  15.831  0.00  0.00    +0.052 C 
BRANCH  15  16
ATOM     16  C   UNL     1     -31.665 -12.813  16.063  0.00  0.00    -0.046 A 
ATOM     17  C   UNL     1     -32.897 -12.772  16.735  0.00  0.00    +0.004 A 
ATOM     18  C   UNL     1     -33.530 -11.549  16.975  0.00  0.00    +0.012 A 
ATOM     19  C   UNL     1     -32.948 -10.346  16.533  0.00  0.00    +0.055 A 
ATOM     20  C   UNL     1     -31.699 -10.390  15.891  0.00  0.00    +0.012 A 
ATOM     21  C   UNL     1     -31.066 -11.612  15.654  0.00  0.00    +0.004 A 
BRANCH  19  22
ATOM     22  C   UNL     1     -33.605  -9.023  16.833  0.00  0.00    +0.417 C 
ATOM     23  F   UNL     1     -32.808  -8.253  17.660  0.00  0.00    -0.166 F 
ATOM     24  F   UNL     1     -34.822  -9.216  17.463  0.00  0.00    -0.166 F 
ATOM     25  F   UNL     1     -33.815  -8.341  15.648  0.00  0.00    -0.166 F 
ENDBRANCH  19  22
ENDBRANCH  15  16
ENDBRANCH  14  15
ENDBRANCH   1  14
TORSDOF 7
ENDMDL
MODEL 6
REMARK VINA RESULT:    -3.882      4.000      5.961
REMARK INTER + INTRA:          -8.608
REMARK INTER:                  -5.473
REMARK INTRA:                  -3.135
REMARK UNBOUND:                -3.138
REMARK  Name = 
REMARK  8 active torsions:
REMARK  status: ('A' for Active; 'I' for Inactive)
REMARK    1  A    between atoms: C_1  and  O_2
REMARK    2  A    between atoms: O_2  and  C_3
REMARK    3  A    between atoms: C_6  and  S_9
REMARK    4  A    between atoms: S_9  and  N_12
REMARK    5  A    between atoms: N_12  and  C_13
REMARK    6  A    between atoms: C_13  and  C_14
REMARK    7  A    between atoms: C_14  and  C_15
REMARK    8  A    between atoms: C_18  and  C_21
REMARK                            x       y       z     vdW  Elec       q    Type
REMARK                         _______ _______ _______ _____ _____    ______ ____
ROOT
ATOM      1  N   UNL     1     -31.684 -14.309  13.218  0.00  0.00    -0.190 NA
ATOM      2  H   UNL     1     -31.852 -14.890  12.365  0.00  0.00    +0.148 HD
ENDROOT
BRANCH   1   3
ATOM      3  S   UNL     1     -32.487 -12.794  12.940  0.00  0.00    +0.058 S 
ATOM      4  O   UNL     1     -33.860 -13.048  12.382  0.00  0.00    -0.153 OA
ATOM      5  O   UNL     1     -31.704 -11.994  11.938  0.00  0.00    -0.153 OA
BRANCH   3   9
ATOM      6  C   UNL     1     -32.718 -10.456  16.867  0.00  0.00    +0.120 A 
ATOM      7  C   UNL     1     -31.615 -10.302  16.005  0.00  0.00    +0.047 A 
ATOM      8  C   UNL     1     -31.556 -11.012  14.803  0.00  0.00    +0.032 A 
ATOM      9  C   UNL     1     -32.594 -11.881  14.443  0.00  0.00    +0.105 A 
ATOM     10  C   UNL     1     -33.690 -12.040  15.301  0.00  0.00    +0.032 A 
ATOM     11  C   UNL     1     -33.751 -11.328  16.504  0.00  0.00    +0.047 A 
BRANCH   6  13
ATOM     12  C   UNL     1     -31.830  -8.888  18.600  0.00  0.00    +0.277 C 
ATOM     13  O   UNL     1     -32.825  -9.766  18.083  0.00  0.00    -0.495 OA
ENDBRANCH   6  13
ENDBRANCH   3   9
ENDBRANCH   1   3
BRANCH   1  14
ATOM     14  C   UNL     1     -30.241 -14.086  13.348  0.00  0.00    +0.110 C 
BRANCH  14  15
ATOM     15  C   UNL     1     -29.650 -14.972  14.450  0.00  0.00    +0.052 C 
BRANCH  15  16
ATOM     16  C   UNL     1     -29.956 -14.433  15.824  0.00  0.00    -0.046 A 
ATOM     17  C   UNL     1     -29.053 -13.575  16.470  0.00  0.00    +0.004 A 
ATOM     18  C   UNL     1     -29.353 -13.053  17.731  0.00  0.00    +0.012 A 
ATOM     19  C   UNL     1     -30.557 -13.392  18.374  0.00  0.00    +0.055 A 
ATOM     20  C   UNL     1     -31.474 -14.224  17.709  0.00  0.00    +0.012 A 
ATOM     21  C   UNL     1     -31.174 -14.744  16.447  0.00  0.00    +0.004 A 
BRANCH  19  22
ATOM     22  C   UNL     1     -30.905 -12.793  19.713  0.00  0.00    +0.417 C 
ATOM     23  F   UNL     1     -30.566 -13.654  20.741  0.00  0.00    -0.166 F 
ATOM     24  F   UNL     1     -32.263 -12.537  19.793  0.00  0.00    -0.166 F 
ATOM     25  F   UNL     1     -30.214 -11.606  19.874  0.00  0.00    -0.166 F 
ENDBRANCH  19  22
ENDBRANCH  15  16
ENDBRANCH  14  15
ENDBRANCH   1  14
TORSDOF 7
ENDMDL
MODEL 7
REMARK VINA RESULT:    -3.841      3.332      5.099
REMARK INTER + INTRA:          -8.552
REMARK INTER:                  -6.791
REMARK INTRA:                  -1.761
REMARK UNBOUND:                -3.138
REMARK  Name = 
REMARK  8 active torsions:
REMARK  status: ('A' for Active; 'I' for Inactive)
REMARK    1  A    between atoms: C_1  and  O_2
REMARK    2  A    between atoms: O_2  and  C_3
REMARK    3  A    between atoms: C_6  and  S_9
REMARK    4  A    between atoms: S_9  and  N_12
REMARK    5  A    between atoms: N_12  and  C_13
REMARK    6  A    between atoms: C_13  and  C_14
REMARK    7  A    between atoms: C_14  and  C_15
REMARK    8  A    between atoms: C_18  and  C_21
REMARK                            x       y       z     vdW  Elec       q    Type
REMARK                         _______ _______ _______ _____ _____    ______ ____
ROOT
ATOM      1  N   UNL     1     -28.207 -13.547  18.126  0.00  0.00    -0.190 NA
ATOM      2  H   UNL     1     -27.955 -14.273  18.836  0.00  0.00    +0.148 HD
ENDROOT
BRANCH   1   3
ATOM      3  S   UNL     1     -28.334 -12.046  18.991  0.00  0.00    +0.058 S 
ATOM      4  O   UNL     1     -27.065 -11.259  18.820  0.00  0.00    -0.153 OA
ATOM      5  O   UNL     1     -28.527 -12.332  20.454  0.00  0.00    -0.153 OA
BRANCH   3   9
ATOM      6  C   UNL     1     -31.889  -9.595  17.476  0.00  0.00    +0.120 A 
ATOM      7  C   UNL     1     -30.658  -9.569  16.793  0.00  0.00    +0.047 A 
ATOM      8  C   UNL     1     -29.580 -10.329  17.256  0.00  0.00    +0.032 A 
ATOM      9  C   UNL     1     -29.714 -11.123  18.402  0.00  0.00    +0.105 A 
ATOM     10  C   UNL     1     -30.937 -11.146  19.086  0.00  0.00    +0.032 A 
ATOM     11  C   UNL     1     -32.017 -10.388  18.623  0.00  0.00    +0.047 A 
BRANCH   6  13
ATOM     12  C   UNL     1     -33.775  -9.155  15.895  0.00  0.00    +0.277 C 
ATOM     13  O   UNL     1     -33.001  -8.854  17.052  0.00  0.00    -0.495 OA
ENDBRANCH   6  13
ENDBRANCH   3   9
ENDBRANCH   1   3
BRANCH   1  14
ATOM     14  C   UNL     1     -29.509 -13.897  17.550  0.00  0.00    +0.110 C 
BRANCH  14  15
ATOM     15  C   UNL     1     -29.361 -14.319  16.084  0.00  0.00    +0.052 C 
BRANCH  15  16
ATOM     16  C   UNL     1     -30.489 -13.790  15.235  0.00  0.00    -0.046 A 
ATOM     17  C   UNL     1     -30.453 -13.931  13.839  0.00  0.00    +0.004 A 
ATOM     18  C   UNL     1     -31.514 -13.466  13.056  0.00  0.00    +0.012 A 
ATOM     19  C   UNL     1     -32.622 -12.840  13.655  0.00  0.00    +0.055 A 
ATOM     20  C   UNL     1     -32.668 -12.733  15.055  0.00  0.00    +0.012 A 
ATOM     21  C   UNL     1     -31.609 -13.200  15.838  0.00  0.00    +0.004 A 
BRANCH  19  22
ATOM     22  C   UNL     1     -33.789 -12.382  12.817  0.00  0.00    +0.417 C 
ATOM     23  F   UNL     1     -34.307 -13.431  12.080  0.00  0.00    -0.166 F 
ATOM     24  F   UNL     1     -33.394 -11.389  11.938  0.00  0.00    -0.166 F 
ATOM     25  F   UNL     1     -34.776 -11.882  13.647  0.00  0.00    -0.166 F 
ENDBRANCH  19  22
ENDBRANCH  15  16
ENDBRANCH  14  15
ENDBRANCH   1  14
TORSDOF 7
ENDMDL
MODEL 8
REMARK VINA RESULT:    -3.788      3.633      6.086
REMARK INTER + INTRA:          -8.476
REMARK INTER:                  -5.157
REMARK INTRA:                  -3.319
REMARK UNBOUND:                -3.138
REMARK  Name = 
REMARK  8 active torsions:
REMARK  status: ('A' for Active; 'I' for Inactive)
REMARK    1  A    between atoms: C_1  and  O_2
REMARK    2  A    between atoms: O_2  and  C_3
REMARK    3  A    between atoms: C_6  and  S_9
REMARK    4  A    between atoms: S_9  and  N_12
REMARK    5  A    between atoms: N_12  and  C_13
REMARK    6  A    between atoms: C_13  and  C_14
REMARK    7  A    between atoms: C_14  and  C_15
REMARK    8  A    between atoms: C_18  and  C_21
REMARK                            x       y       z     vdW  Elec       q    Type
REMARK                         _______ _______ _______ _____ _____    ______ ____
ROOT
ATOM      1  N   UNL     1     -29.108 -13.962  18.923  0.00  0.00    -0.190 NA
ATOM      2  H   UNL     1     -28.733 -14.930  18.799  0.00  0.00    +0.148 HD
ENDROOT
BRANCH   1   3
ATOM      3  S   UNL     1     -28.619 -13.067  17.517  0.00  0.00    +0.058 S 
ATOM      4  O   UNL     1     -28.322 -14.021  16.393  0.00  0.00    -0.153 OA
ATOM      5  O   UNL     1     -27.370 -12.293  17.831  0.00  0.00    -0.153 OA
BRANCH   3   9
ATOM      6  C   UNL     1     -31.904 -10.151  16.234  0.00  0.00    +0.120 A 
ATOM      7  C   UNL     1     -32.082 -11.540  16.088  0.00  0.00    +0.047 A 
ATOM      8  C   UNL     1     -31.078 -12.425  16.491  0.00  0.00    +0.032 A 
ATOM      9  C   UNL     1     -29.888 -11.939  17.046  0.00  0.00    +0.105 A 
ATOM     10  C   UNL     1     -29.706 -10.557  17.187  0.00  0.00    +0.032 A 
ATOM     11  C   UNL     1     -30.710  -9.670  16.786  0.00  0.00    +0.047 A 
BRANCH   6  13
ATOM     12  C   UNL     1     -34.071  -9.554  15.139  0.00  0.00    +0.277 C 
ATOM     13  O   UNL     1     -32.880  -9.222  15.847  0.00  0.00    -0.495 OA
ENDBRANCH   6  13
ENDBRANCH   3   9
ENDBRANCH   1   3
BRANCH   1  14
ATOM     14  C   UNL     1     -28.492 -13.378  20.118  0.00  0.00    +0.110 C 
BRANCH  14  15
ATOM     15  C   UNL     1     -29.533 -13.176  21.225  0.00  0.00    +0.052 C 
BRANCH  15  16
ATOM     16  C   UNL     1     -30.534 -12.110  20.862  0.00  0.00    -0.046 A 
ATOM     17  C   UNL     1     -30.214 -10.752  21.014  0.00  0.00    +0.004 A 
ATOM     18  C   UNL     1     -31.133  -9.765  20.648  0.00  0.00    +0.012 A 
ATOM     19  C   UNL     1     -32.395 -10.119  20.137  0.00  0.00    +0.055 A 
ATOM     20  C   UNL     1     -32.698 -11.479  19.954  0.00  0.00    +0.012 A 
ATOM     21  C   UNL     1     -31.777 -12.465  20.318  0.00  0.00    +0.004 A 
BRANCH  19  22
ATOM     22  C   UNL     1     -33.369  -9.056  19.697  0.00  0.00    +0.417 C 
ATOM     23  F   UNL     1     -32.710  -8.010  19.078  0.00  0.00    -0.166 F 
ATOM     24  F   UNL     1     -34.059  -8.550  20.785  0.00  0.00    -0.166 F 
ATOM     25  F   UNL     1     -34.274  -9.608  18.808  0.00  0.00    -0.166 F 
ENDBRANCH  19  22
ENDBRANCH  15  16
ENDBRANCH  14  15
ENDBRANCH   1  14
TORSDOF 7
ENDMDL
MODEL 9
REMARK VINA RESULT:    -3.614      2.553      4.433
REMARK INTER + INTRA:          -8.231
REMARK INTER:                  -5.091
REMARK INTRA:                  -3.140
REMARK UNBOUND:                -3.138
REMARK  Name = 
REMARK  8 active torsions:
REMARK  status: ('A' for Active; 'I' for Inactive)
REMARK    1  A    between atoms: C_1  and  O_2
REMARK    2  A    between atoms: O_2  and  C_3
REMARK    3  A    between atoms: C_6  and  S_9
REMARK    4  A    between atoms: S_9  and  N_12
REMARK    5  A    between atoms: N_12  and  C_13
REMARK    6  A    between atoms: C_13  and  C_14
REMARK    7  A    between atoms: C_14  and  C_15
REMARK    8  A    between atoms: C_18  and  C_21
REMARK                            x       y       z     vdW  Elec       q    Type
REMARK                         _______ _______ _______ _____ _____    ______ ____
ROOT
ATOM      1  N   UNL     1     -33.067  -8.707  16.930  0.00  0.00    -0.190 NA
ATOM      2  H   UNL     1     -33.574  -7.863  16.574  0.00  0.00    +0.148 HD
ENDROOT
BRANCH   1   3
ATOM      3  S   UNL     1     -33.872 -10.083  16.239  0.00  0.00    +0.058 S 
ATOM      4  O   UNL     1     -34.352  -9.743  14.856  0.00  0.00    -0.153 OA
ATOM      5  O   UNL     1     -35.062 -10.437  17.086  0.00  0.00    -0.153 OA
BRANCH   3   9
ATOM      6  C   UNL     1     -30.996 -13.642  16.155  0.00  0.00    +0.120 A 
ATOM      7  C   UNL     1     -31.934 -13.503  17.196  0.00  0.00    +0.047 A 
ATOM      8  C   UNL     1     -32.816 -12.418  17.210  0.00  0.00    +0.032 A 
ATOM      9  C   UNL     1     -32.776 -11.462  16.188  0.00  0.00    +0.105 A 
ATOM     10  C   UNL     1     -31.841 -11.595  15.153  0.00  0.00    +0.032 A 
ATOM     11  C   UNL     1     -30.959 -12.681  15.138  0.00  0.00    +0.047 A 
BRANCH   6  13
ATOM     12  C   UNL     1     -29.226 -14.971  14.994  0.00  0.00    +0.277 C 
ATOM     13  O   UNL     1     -30.092 -14.711  16.095  0.00  0.00    -0.495 OA
ENDBRANCH   6  13
ENDBRANCH   3   9
ENDBRANCH   1   3
BRANCH   1  14
ATOM     14  C   UNL     1     -33.194  -8.742  18.390  0.00  0.00    +0.110 C 
BRANCH  14  15
ATOM     15  C   UNL     1     -31.871  -8.356  19.060  0.00  0.00    +0.052 C 
BRANCH  15  16
ATOM     16  C   UNL     1     -30.892  -9.502  19.063  0.00  0.00    -0.046 A 
ATOM     17  C   UNL     1     -30.910 -10.450  20.098  0.00  0.00    +0.004 A 
ATOM     18  C   UNL     1     -30.021 -11.529  20.083  0.00  0.00    +0.012 A 
ATOM     19  C   UNL     1     -29.088 -11.669  19.039  0.00  0.00    +0.055 A 
ATOM     20  C   UNL     1     -29.097 -10.736  17.988  0.00  0.00    +0.012 A 
ATOM     21  C   UNL     1     -29.987  -9.660  18.003  0.00  0.00    +0.004 A 
BRANCH  19  22
ATOM     22  C   UNL     1     -28.160 -12.857  18.996  0.00  0.00    +0.417 C 
ATOM     23  F   UNL     1     -27.996 -13.305  17.698  0.00  0.00    -0.166 F 
ATOM     24  F   UNL     1     -28.670 -13.898  19.752  0.00  0.00    -0.166 F 
ATOM     25  F   UNL     1     -26.928 -12.490  19.506  0.00  0.00    -0.166 F 
ENDBRANCH  19  22
ENDBRANCH  15  16
ENDBRANCH  14  15
ENDBRANCH   1  14
TORSDOF 7
ENDMDL
