MODEL 1
REMARK VINA RESULT:    -5.283      0.000      0.000
REMARK INTER + INTRA:          -6.853
REMARK INTER:                  -6.673
REMARK INTRA:                  -0.180
REMARK UNBOUND:                -0.180
REMARK  Name = 
REMARK  5 active torsions:
REMARK  status: ('A' for Active; 'I' for Inactive)
REMARK    1  A    between atoms: C_2  and  C_4
REMARK    2  A    between atoms: C_4  and  O_5
REMARK    3  A    between atoms: C_4  and  C_6
REMARK    4  A    between atoms: N_9  and  C_10
REMARK    5  A    between atoms: C_10  and  C_11
REMARK                            x       y       z     vdW  Elec       q    Type
REMARK                         _______ _______ _______ _____ _____    ______ ____
ROOT
ATOM      1  C   UNL     1     -28.501 -13.558  20.078  0.00  0.00    +0.029 C 
ATOM      2  C   UNL     1     -27.891 -12.307  19.395  0.00  0.00    +0.022 C 
ATOM      3  C   UNL     1     -28.888 -11.593  18.463  0.00  0.00    +0.085 C 
ATOM      4  N   UNL     1     -29.921 -12.534  17.990  0.00  0.00    -0.298 NA
ATOM      5  C   UNL     1     -30.789 -12.961  19.116  0.00  0.00    +0.085 C 
ATOM      6  C   UNL     1     -29.987 -13.302  20.393  0.00  0.00    +0.022 C 
ENDROOT
BRANCH   1   7
ATOM      7  C   UNL     1     -27.718 -13.954  21.353  0.00  0.00    +0.203 C 
BRANCH   7   9
ATOM      8  N   UNL     1     -25.517 -15.059  22.020  0.00  0.00    -0.327 N 
ATOM      9  C   UNL     1     -26.351 -14.489  21.010  0.00  0.00    +0.239 C 
ATOM     10  O   UNL     1     -25.946 -14.451  19.816  0.00  0.00    -0.273 OA
ATOM     11  H   UNL     1     -25.836 -15.104  23.013  0.00  0.00    +0.145 HD
ATOM     12  H   UNL     1     -24.576 -15.439  21.773  0.00  0.00    +0.145 HD
ENDBRANCH   7   9
BRANCH   7  13
ATOM     13  O   UNL     1     -28.431 -14.935  22.062  0.00  0.00    -0.382 OA
ATOM     14  H   UNL     1     -28.499 -15.728  21.468  0.00  0.00    +0.210 HD
ENDBRANCH   7  13
ENDBRANCH   1   7
BRANCH   4  15
ATOM     15  C   UNL     1     -30.718 -11.925  16.905  0.00  0.00    +0.119 C 
BRANCH  15  16
ATOM     16  C   UNL     1     -30.661 -12.774  15.661  0.00  0.00    -0.030 A 
ATOM     17  C   UNL     1     -29.851 -13.920  15.615  0.00  0.00    +0.008 A 
ATOM     18  C   UNL     1     -29.784 -14.688  14.448  0.00  0.00    +0.041 A 
ATOM     19  C   UNL     1     -30.522 -14.315  13.320  0.00  0.00    +0.158 A 
ATOM     20  F   UNL     1     -30.454 -15.062  12.190  0.00  0.00    -0.202 F 
ATOM     21  C   UNL     1     -31.326 -13.172  13.358  0.00  0.00    +0.159 A 
ATOM     22  F   UNL     1     -32.038 -12.805  12.264  0.00  0.00    -0.202 F 
ATOM     23  C   UNL     1     -31.394 -12.401  14.523  0.00  0.00    +0.046 A 
ENDBRANCH  15  16
ENDBRANCH   4  15
TORSDOF 5
ENDMDL
MODEL 2
REMARK VINA RESULT:    -5.081      1.817      2.587
REMARK INTER + INTRA:          -6.598
REMARK INTER:                  -6.464
REMARK INTRA:                  -0.134
REMARK UNBOUND:                -0.180
REMARK  Name = 
REMARK  5 active torsions:
REMARK  status: ('A' for Active; 'I' for Inactive)
REMARK    1  A    between atoms: C_2  and  C_4
REMARK    2  A    between atoms: C_4  and  O_5
REMARK    3  A    between atoms: C_4  and  C_6
REMARK    4  A    between atoms: N_9  and  C_10
REMARK    5  A    between atoms: C_10  and  C_11
REMARK                            x       y       z     vdW  Elec       q    Type
REMARK                         _______ _______ _______ _____ _____    ______ ____
ROOT
ATOM      1  C   UNL     1     -28.603 -12.773  20.354  0.00  0.00    +0.029 C 
ATOM      2  C   UNL     1     -27.535 -12.461  19.273  0.00  0.00    +0.022 C 
ATOM      3  C   UNL     1     -27.921 -11.261  18.387  0.00  0.00    +0.085 C 
ATOM      4  N   UNL     1     -29.384 -11.080  18.367  0.00  0.00    -0.298 NA
ATOM      5  C   UNL     1     -29.873 -10.657  19.703  0.00  0.00    +0.085 C 
ATOM      6  C   UNL     1     -29.229 -11.459  20.856  0.00  0.00    +0.022 C 
ENDROOT
BRANCH   1   7
ATOM      7  C   UNL     1     -28.011 -13.596  21.523  0.00  0.00    +0.203 C 
BRANCH   7   9
ATOM      8  N   UNL     1     -26.410 -15.062  20.183  0.00  0.00    -0.327 N 
ATOM      9  C   UNL     1     -26.620 -14.081  21.200  0.00  0.00    +0.239 C 
ATOM     10  O   UNL     1     -25.631 -13.602  21.817  0.00  0.00    -0.273 OA
ATOM     11  H   UNL     1     -27.215 -15.468  19.657  0.00  0.00    +0.145 HD
ATOM     12  H   UNL     1     -25.443 -15.385  19.956  0.00  0.00    +0.145 HD
ENDBRANCH   7   9
BRANCH   7  13
ATOM     13  O   UNL     1     -28.834 -14.702  21.790  0.00  0.00    -0.382 OA
ATOM     14  H   UNL     1     -28.946 -15.191  20.933  0.00  0.00    +0.210 HD
ENDBRANCH   7  13
ENDBRANCH   1   7
BRANCH   4  15
ATOM     15  C   UNL     1     -29.771 -10.106  17.325  0.00  0.00    +0.119 C 
BRANCH  15  16
ATOM     16  C   UNL     1     -30.839 -10.678  16.431  0.00  0.00    -0.030 A 
ATOM     17  C   UNL     1     -31.962  -9.912  16.076  0.00  0.00    +0.008 A 
ATOM     18  C   UNL     1     -32.960 -10.460  15.266  0.00  0.00    +0.041 A 
ATOM     19  C   UNL     1     -32.848 -11.776  14.807  0.00  0.00    +0.158 A 
ATOM     20  F   UNL     1     -33.820 -12.304  14.023  0.00  0.00    -0.202 F 
ATOM     21  C   UNL     1     -31.736 -12.547  15.161  0.00  0.00    +0.159 A 
ATOM     22  F   UNL     1     -31.628 -13.825  14.722  0.00  0.00    -0.202 F 
ATOM     23  C   UNL     1     -30.736 -12.001  15.972  0.00  0.00    +0.046 A 
ENDBRANCH  15  16
ENDBRANCH   4  15
TORSDOF 5
ENDMDL
MODEL 3
REMARK VINA RESULT:    -4.923      1.700      2.531
REMARK INTER + INTRA:          -6.398
REMARK INTER:                  -6.168
REMARK INTRA:                  -0.230
REMARK UNBOUND:                -0.180
REMARK  Name = 
REMARK  5 active torsions:
REMARK  status: ('A' for Active; 'I' for Inactive)
REMARK    1  A    between atoms: C_2  and  C_4
REMARK    2  A    between atoms: C_4  and  O_5
REMARK    3  A    between atoms: C_4  and  C_6
REMARK    4  A    between atoms: N_9  and  C_10
REMARK    5  A    between atoms: C_10  and  C_11
REMARK                            x       y       z     vdW  Elec       q    Type
REMARK                         _______ _______ _______ _____ _____    ______ ____
ROOT
ATOM      1  C   UNL     1     -29.700 -12.395  18.995  0.00  0.00    +0.029 C 
ATOM      2  C   UNL     1     -29.087 -11.020  18.625  0.00  0.00    +0.022 C 
ATOM      3  C   UNL     1     -30.004 -10.187  17.710  0.00  0.00    +0.085 C 
ATOM      4  N   UNL     1     -30.914 -11.065  16.950  0.00  0.00    -0.298 NA
ATOM      5  C   UNL     1     -31.885 -11.719  17.862  0.00  0.00    +0.085 C 
ATOM      6  C   UNL     1     -31.226 -12.254  19.153  0.00  0.00    +0.022 C 
ENDROOT
BRANCH   1   7
ATOM      7  C   UNL     1     -29.056 -12.985  20.273  0.00  0.00    +0.203 C 
BRANCH   7   9
ATOM      8  N   UNL     1     -27.453 -14.956  20.511  0.00  0.00    -0.327 N 
ATOM      9  C   UNL     1     -27.752 -13.673  19.958  0.00  0.00    +0.239 C 
ATOM     10  O   UNL     1     -26.925 -13.122  19.182  0.00  0.00    -0.273 OA
ATOM     11  H   UNL     1     -28.127 -15.432  21.152  0.00  0.00    +0.145 HD
ATOM     12  H   UNL     1     -26.553 -15.432  20.279  0.00  0.00    +0.145 HD
ENDBRANCH   7   9
BRANCH   7  13
ATOM     13  O   UNL     1     -29.934 -13.909  20.863  0.00  0.00    -0.382 OA
ATOM     14  H   UNL     1     -29.416 -14.395  21.558  0.00  0.00    +0.210 HD
ENDBRANCH   7  13
ENDBRANCH   1   7
BRANCH   4  15
ATOM     15  C   UNL     1     -31.608 -10.300  15.893  0.00  0.00    +0.119 C 
BRANCH  15  16
ATOM     16  C   UNL     1     -32.136 -11.224  14.827  0.00  0.00    -0.030 A 
ATOM     17  C   UNL     1     -33.426 -11.047  14.302  0.00  0.00    +0.008 A 
ATOM     18  C   UNL     1     -33.918 -11.924  13.331  0.00  0.00    +0.041 A 
ATOM     19  C   UNL     1     -33.126 -12.985  12.880  0.00  0.00    +0.158 A 
ATOM     20  F   UNL     1     -33.607 -13.835  11.938  0.00  0.00    -0.202 F 
ATOM     21  C   UNL     1     -31.843 -13.171  13.402  0.00  0.00    +0.159 A 
ATOM     22  F   UNL     1     -31.075 -14.202  12.970  0.00  0.00    -0.202 F 
ATOM     23  C   UNL     1     -31.349 -12.295  14.374  0.00  0.00    +0.046 A 
ENDBRANCH  15  16
ENDBRANCH   4  15
TORSDOF 5
ENDMDL
MODEL 4
REMARK VINA RESULT:    -4.644      3.340      4.738
REMARK INTER + INTRA:          -6.047
REMARK INTER:                  -5.456
REMARK INTRA:                  -0.590
REMARK UNBOUND:                -0.180
REMARK  Name = 
REMARK  5 active torsions:
REMARK  status: ('A' for Active; 'I' for Inactive)
REMARK    1  A    between atoms: C_2  and  C_4
REMARK    2  A    between atoms: C_4  and  O_5
REMARK    3  A    between atoms: C_4  and  C_6
REMARK    4  A    between atoms: N_9  and  C_10
REMARK    5  A    between atoms: C_10  and  C_11
REMARK                            x       y       z     vdW  Elec       q    Type
REMARK                         _______ _______ _______ _____ _____    ______ ____
ROOT
ATOM      1  C   UNL     1     -30.907 -10.181  19.228  0.00  0.00    +0.029 C 
ATOM      2  C   UNL     1     -31.551 -11.371  19.985  0.00  0.00    +0.022 C 
ATOM      3  C   UNL     1     -30.968 -12.732  19.559  0.00  0.00    +0.085 C 
ATOM      4  N   UNL     1     -30.411 -12.653  18.195  0.00  0.00    -0.298 NA
ATOM      5  C   UNL     1     -29.215 -11.774  18.173  0.00  0.00    +0.085 C 
ATOM      6  C   UNL     1     -29.415 -10.472  18.981  0.00  0.00    +0.022 C 
ENDROOT
BRANCH   1   7
ATOM      7  C   UNL     1     -31.099  -8.846  19.988  0.00  0.00    +0.203 C 
BRANCH   7   9
ATOM      8  N   UNL     1     -32.437  -8.231  17.905  0.00  0.00    -0.327 N 
ATOM      9  C   UNL     1     -32.008  -7.913  19.229  0.00  0.00    +0.239 C 
ATOM     10  O   UNL     1     -32.412  -6.851  19.776  0.00  0.00    -0.273 OA
ATOM     11  H   UNL     1     -32.118  -9.108  17.436  0.00  0.00    +0.145 HD
ATOM     12  H   UNL     1     -33.077  -7.586  17.389  0.00  0.00    +0.145 HD
ENDBRANCH   7   9
BRANCH   7  13
ATOM     13  O   UNL     1     -29.854  -8.224  20.177  0.00  0.00    -0.382 OA
ATOM     14  H   UNL     1     -29.226  -8.927  20.489  0.00  0.00    +0.210 HD
ENDBRANCH   7  13
ENDBRANCH   1   7
BRANCH   4  15
ATOM     15  C   UNL     1     -30.089 -14.004  17.689  0.00  0.00    +0.119 C 
BRANCH  15  16
ATOM     16  C   UNL     1     -30.207 -14.052  16.188  0.00  0.00    -0.030 A 
ATOM     17  C   UNL     1     -29.185 -14.617  15.408  0.00  0.00    +0.008 A 
ATOM     18  C   UNL     1     -29.291 -14.635  14.015  0.00  0.00    +0.041 A 
ATOM     19  C   UNL     1     -30.415 -14.086  13.390  0.00  0.00    +0.158 A 
ATOM     20  F   UNL     1     -30.513 -14.105  12.037  0.00  0.00    -0.202 F 
ATOM     21  C   UNL     1     -31.434 -13.516  14.159  0.00  0.00    +0.159 A 
ATOM     22  F   UNL     1     -32.523 -12.979  13.556  0.00  0.00    -0.202 F 
ATOM     23  C   UNL     1     -31.330 -13.497  15.554  0.00  0.00    +0.046 A 
ENDBRANCH  15  16
ENDBRANCH   4  15
TORSDOF 5
ENDMDL
MODEL 5
REMARK VINA RESULT:    -4.628      2.392      3.564
REMARK INTER + INTRA:          -6.025
REMARK INTER:                  -5.816
REMARK INTRA:                  -0.209
REMARK UNBOUND:                -0.180
REMARK  Name = 
REMARK  5 active torsions:
REMARK  status: ('A' for Active; 'I' for Inactive)
REMARK    1  A    between atoms: C_2  and  C_4
REMARK    2  A    between atoms: C_4  and  O_5
REMARK    3  A    between atoms: C_4  and  C_6
REMARK    4  A    between atoms: N_9  and  C_10
REMARK    5  A    between atoms: C_10  and  C_11
REMARK                            x       y       z     vdW  Elec       q    Type
REMARK                         _______ _______ _______ _____ _____    ______ ____
ROOT
ATOM      1  C   UNL     1     -30.254 -13.028  18.359  0.00  0.00    +0.029 C 
ATOM      2  C   UNL     1     -31.407 -13.988  17.970  0.00  0.00    +0.022 C 
ATOM      3  C   UNL     1     -31.330 -14.445  16.500  0.00  0.00    +0.085 C 
ATOM      4  N   UNL     1     -30.590 -13.459  15.690  0.00  0.00    -0.298 NA
ATOM      5  C   UNL     1     -29.160 -13.429  16.088  0.00  0.00    +0.085 C 
ATOM      6  C   UNL     1     -28.967 -13.441  17.622  0.00  0.00    +0.022 C 
ENDROOT
BRANCH   1   7
ATOM      7  C   UNL     1     -30.034 -12.987  19.891  0.00  0.00    +0.203 C 
BRANCH   7   9
ATOM      8  N   UNL     1     -28.076 -14.497  20.522  0.00  0.00    -0.327 N 
ATOM      9  C   UNL     1     -28.581 -13.191  20.239  0.00  0.00    +0.239 C 
ATOM     10  O   UNL     1     -27.799 -12.203  20.260  0.00  0.00    -0.273 OA
ATOM     11  H   UNL     1     -28.707 -15.329  20.506  0.00  0.00    +0.145 HD
ATOM     12  H   UNL     1     -27.066 -14.632  20.750  0.00  0.00    +0.145 HD
ENDBRANCH   7   9
BRANCH   7  13
ATOM     13  O   UNL     1     -30.800 -13.991  20.507  0.00  0.00    -0.382 OA
ATOM     14  H   UNL     1     -30.161 -14.655  20.877  0.00  0.00    +0.210 HD
ENDBRANCH   7  13
ENDBRANCH   1   7
BRANCH   4  15
ATOM     15  C   UNL     1     -30.735 -13.760  14.250  0.00  0.00    +0.119 C 
BRANCH  15  16
ATOM     16  C   UNL     1     -31.898 -13.004  13.663  0.00  0.00    -0.030 A 
ATOM     17  C   UNL     1     -32.525 -13.454  12.489  0.00  0.00    +0.008 A 
ATOM     18  C   UNL     1     -33.587 -12.733  11.938  0.00  0.00    +0.041 A 
ATOM     19  C   UNL     1     -34.030 -11.557  12.551  0.00  0.00    +0.158 A 
ATOM     20  F   UNL     1     -35.061 -10.860  12.012  0.00  0.00    -0.202 F 
ATOM     21  C   UNL     1     -33.408 -11.100  13.717  0.00  0.00    +0.159 A 
ATOM     22  F   UNL     1     -33.831  -9.957  14.311  0.00  0.00    -0.202 F 
ATOM     23  C   UNL     1     -32.343 -11.819  14.270  0.00  0.00    +0.046 A 
ENDBRANCH  15  16
ENDBRANCH   4  15
TORSDOF 5
ENDMDL
MODEL 6
REMARK VINA RESULT:    -4.439      2.514      2.988
REMARK INTER + INTRA:          -5.787
REMARK INTER:                  -5.418
REMARK INTRA:                  -0.369
REMARK UNBOUND:                -0.180
REMARK  Name = 
REMARK  5 active torsions:
REMARK  status: ('A' for Active; 'I' for Inactive)
REMARK    1  A    between atoms: C_2  and  C_4
REMARK    2  A    between atoms: C_4  and  O_5
REMARK    3  A    between atoms: C_4  and  C_6
REMARK    4  A    between atoms: N_9  and  C_10
REMARK    5  A    between atoms: C_10  and  C_11
REMARK                            x       y       z     vdW  Elec       q    Type
REMARK                         _______ _______ _______ _____ _____    ______ ____
ROOT
ATOM      1  C   UNL     1     -28.830 -12.781  20.948  0.00  0.00    +0.029 C 
ATOM      2  C   UNL     1     -29.227 -11.537  21.784  0.00  0.00    +0.022 C 
ATOM      3  C   UNL     1     -30.558 -10.912  21.323  0.00  0.00    +0.085 C 
ATOM      4  N   UNL     1     -30.823 -11.240  19.910  0.00  0.00    -0.298 NA
ATOM      5  C   UNL     1     -31.084 -12.693  19.755  0.00  0.00    +0.085 C 
ATOM      6  C   UNL     1     -30.096 -13.568  20.559  0.00  0.00    +0.022 C 
ENDROOT
BRANCH   1   7
ATOM      7  C   UNL     1     -27.821 -13.681  21.703  0.00  0.00    +0.203 C 
BRANCH   7   9
ATOM      8  N   UNL     1     -25.385 -14.399  21.465  0.00  0.00    -0.327 N 
ATOM      9  C   UNL     1     -26.601 -13.957  20.861  0.00  0.00    +0.239 C 
ATOM     10  O   UNL     1     -26.659 -13.817  19.610  0.00  0.00    -0.273 OA
ATOM     11  H   UNL     1     -25.316 -14.526  22.499  0.00  0.00    +0.145 HD
ATOM     12  H   UNL     1     -24.547 -14.601  20.875  0.00  0.00    +0.145 HD
ENDBRANCH   7   9
BRANCH   7  13
ATOM     13  O   UNL     1     -28.432 -14.899  22.042  0.00  0.00    -0.382 OA
ATOM     14  H   UNL     1     -29.349 -14.877  21.661  0.00  0.00    +0.210 HD
ENDBRANCH   7  13
ENDBRANCH   1   7
BRANCH   4  15
ATOM     15  C   UNL     1     -31.952 -10.438  19.395  0.00  0.00    +0.119 C 
BRANCH  15  16
ATOM     16  C   UNL     1     -32.125 -10.651  17.914  0.00  0.00    -0.030 A 
ATOM     17  C   UNL     1     -31.157 -10.188  17.007  0.00  0.00    +0.008 A 
ATOM     18  C   UNL     1     -31.337 -10.367  15.633  0.00  0.00    +0.041 A 
ATOM     19  C   UNL     1     -32.485 -11.006  15.154  0.00  0.00    +0.158 A 
ATOM     20  F   UNL     1     -32.657 -11.176  13.819  0.00  0.00    -0.202 F 
ATOM     21  C   UNL     1     -33.456 -11.463  16.050  0.00  0.00    +0.159 A 
ATOM     22  F   UNL     1     -34.573 -12.077  15.587  0.00  0.00    -0.202 F 
ATOM     23  C   UNL     1     -33.278 -11.285  17.426  0.00  0.00    +0.046 A 
ENDBRANCH  15  16
ENDBRANCH   4  15
TORSDOF 5
ENDMDL
MODEL 7
REMARK VINA RESULT:    -4.415      4.766      6.669
REMARK INTER + INTRA:          -5.756
REMARK INTER:                  -5.190
REMARK INTRA:                  -0.567
REMARK UNBOUND:                -0.180
REMARK  Name = 
REMARK  5 active torsions:
REMARK  status: ('A' for Active; 'I' for Inactive)
REMARK    1  A    between atoms: C_2  and  C_4
REMARK    2  A    between atoms: C_4  and  O_5
REMARK    3  A    between atoms: C_4  and  C_6
REMARK    4  A    between atoms: N_9  and  C_10
REMARK    5  A    between atoms: C_10  and  C_11
REMARK                            x       y       z     vdW  Elec       q    Type
REMARK                         _______ _______ _______ _____ _____    ______ ____
ROOT
ATOM      1  C   UNL     1     -33.490  -9.878  16.223  0.00  0.00    +0.029 C 
ATOM      2  C   UNL     1     -34.155 -11.091  16.923  0.00  0.00    +0.022 C 
ATOM      3  C   UNL     1     -33.132 -12.150  17.376  0.00  0.00    +0.085 C 
ATOM      4  N   UNL     1     -31.907 -12.070  16.559  0.00  0.00    -0.298 NA
ATOM      5  C   UNL     1     -31.187 -10.799  16.827  0.00  0.00    +0.085 C 
ATOM      6  C   UNL     1     -32.134  -9.578  16.888  0.00  0.00    +0.022 C 
ENDROOT
BRANCH   1   7
ATOM      7  C   UNL     1     -34.410  -8.633  16.238  0.00  0.00    +0.203 C 
BRANCH   7   9
ATOM      8  N   UNL     1     -34.897  -6.733  14.606  0.00  0.00    -0.327 N 
ATOM      9  C   UNL     1     -34.658  -8.122  14.841  0.00  0.00    +0.239 C 
ATOM     10  O   UNL     1     -34.635  -8.923  13.868  0.00  0.00    -0.273 OA
ATOM     11  H   UNL     1     -34.915  -6.052  15.397  0.00  0.00    +0.145 HD
ATOM     12  H   UNL     1     -35.056  -6.384  13.635  0.00  0.00    +0.145 HD
ENDBRANCH   7   9
BRANCH   7  13
ATOM     13  O   UNL     1     -33.817  -7.615  17.002  0.00  0.00    -0.382 OA
ATOM     14  H   UNL     1     -33.553  -6.896  16.369  0.00  0.00    +0.210 HD
ENDBRANCH   7  13
ENDBRANCH   1   7
BRANCH   4  15
ATOM     15  C   UNL     1     -31.037 -13.237  16.815  0.00  0.00    +0.119 C 
BRANCH  15  16
ATOM     16  C   UNL     1     -30.434 -13.743  15.530  0.00  0.00    -0.030 A 
ATOM     17  C   UNL     1     -29.175 -14.365  15.527  0.00  0.00    +0.008 A 
ATOM     18  C   UNL     1     -28.611 -14.808  14.327  0.00  0.00    +0.041 A 
ATOM     19  C   UNL     1     -29.299 -14.631  13.123  0.00  0.00    +0.158 A 
ATOM     20  F   UNL     1     -28.748 -15.062  11.960  0.00  0.00    -0.202 F 
ATOM     21  C   UNL     1     -30.550 -14.008  13.117  0.00  0.00    +0.159 A 
ATOM     22  F   UNL     1     -31.216 -13.830  11.949  0.00  0.00    -0.202 F 
ATOM     23  C   UNL     1     -31.116 -13.562  14.316  0.00  0.00    +0.046 A 
ENDBRANCH  15  16
ENDBRANCH   4  15
TORSDOF 5
ENDMDL
MODEL 8
REMARK VINA RESULT:    -4.242      3.272      3.966
REMARK INTER + INTRA:          -5.538
REMARK INTER:                  -4.928
REMARK INTRA:                  -0.611
REMARK UNBOUND:                -0.180
REMARK  Name = 
REMARK  5 active torsions:
REMARK  status: ('A' for Active; 'I' for Inactive)
REMARK    1  A    between atoms: C_2  and  C_4
REMARK    2  A    between atoms: C_4  and  O_5
REMARK    3  A    between atoms: C_4  and  C_6
REMARK    4  A    between atoms: N_9  and  C_10
REMARK    5  A    between atoms: C_10  and  C_11
REMARK                            x       y       z     vdW  Elec       q    Type
REMARK                         _______ _______ _______ _____ _____    ______ ____
ROOT
ATOM      1  C   UNL     1     -30.071 -11.588  19.451  0.00  0.00    +0.029 C 
ATOM      2  C   UNL     1     -30.155 -10.123  18.952  0.00  0.00    +0.022 C 
ATOM      3  C   UNL     1     -31.606  -9.621  18.821  0.00  0.00    +0.085 C 
ATOM      4  N   UNL     1     -32.530 -10.754  18.624  0.00  0.00    -0.298 NA
ATOM      5  C   UNL     1     -32.592 -11.592  19.848  0.00  0.00    +0.085 C 
ATOM      6  C   UNL     1     -31.199 -11.854  20.464  0.00  0.00    +0.022 C 
ENDROOT
BRANCH   1   7
ATOM      7  C   UNL     1     -28.684 -11.908  20.059  0.00  0.00    +0.203 C 
BRANCH   7   9
ATOM      8  N   UNL     1     -28.215 -14.415  20.131  0.00  0.00    -0.327 N 
ATOM      9  C   UNL     1     -28.100 -13.161  19.456  0.00  0.00    +0.239 C 
ATOM     10  O   UNL     1     -27.524 -13.107  18.336  0.00  0.00    -0.273 OA
ATOM     11  H   UNL     1     -28.692 -14.482  21.057  0.00  0.00    +0.145 HD
ATOM     12  H   UNL     1     -27.819 -15.281  19.702  0.00  0.00    +0.145 HD
ENDBRANCH   7   9
BRANCH   7  13
ATOM     13  O   UNL     1     -28.802 -12.077  21.448  0.00  0.00    -0.382 OA
ATOM     14  H   UNL     1     -28.743 -13.053  21.625  0.00  0.00    +0.210 HD
ENDBRANCH   7  13
ENDBRANCH   1   7
BRANCH   4  15
ATOM     15  C   UNL     1     -33.872 -10.267  18.243  0.00  0.00    +0.119 C 
BRANCH  15  16
ATOM     16  C   UNL     1     -34.084 -10.398  16.758  0.00  0.00    -0.030 A 
ATOM     17  C   UNL     1     -34.018 -11.654  16.134  0.00  0.00    +0.008 A 
ATOM     18  C   UNL     1     -34.191 -11.764  14.751  0.00  0.00    +0.041 A 
ATOM     19  C   UNL     1     -34.428 -10.621  13.982  0.00  0.00    +0.158 A 
ATOM     20  F   UNL     1     -34.595 -10.731  12.640  0.00  0.00    -0.202 F 
ATOM     21  C   UNL     1     -34.490  -9.366  14.595  0.00  0.00    +0.159 A 
ATOM     22  F   UNL     1     -34.714  -8.255  13.850  0.00  0.00    -0.202 F 
ATOM     23  C   UNL     1     -34.316  -9.253  15.978  0.00  0.00    +0.046 A 
ENDBRANCH  15  16
ENDBRANCH   4  15
TORSDOF 5
ENDMDL
MODEL 9
REMARK VINA RESULT:    -4.143      4.768      7.599
REMARK INTER + INTRA:          -5.413
REMARK INTER:                  -5.064
REMARK INTRA:                  -0.349
REMARK UNBOUND:                -0.180
REMARK  Name = 
REMARK  5 active torsions:
REMARK  status: ('A' for Active; 'I' for Inactive)
REMARK    1  A    between atoms: C_2  and  C_4
REMARK    2  A    between atoms: C_4  and  O_5
REMARK    3  A    between atoms: C_4  and  C_6
REMARK    4  A    between atoms: N_9  and  C_10
REMARK    5  A    between atoms: C_10  and  C_11
REMARK                            x       y       z     vdW  Elec       q    Type
REMARK                         _______ _______ _______ _____ _____    ______ ____
ROOT
ATOM      1  C   UNL     1     -31.986 -12.139  13.989  0.00  0.00    +0.029 C 
ATOM      2  C   UNL     1     -31.414 -13.414  14.660  0.00  0.00    +0.022 C 
ATOM      3  C   UNL     1     -31.580 -13.405  16.192  0.00  0.00    +0.085 C 
ATOM      4  N   UNL     1     -31.680 -12.021  16.694  0.00  0.00    -0.298 NA
ATOM      5  C   UNL     1     -32.944 -11.393  16.234  0.00  0.00    +0.085 C 
ATOM      6  C   UNL     1     -33.246 -11.678  14.745  0.00  0.00    +0.022 C 
ENDROOT
BRANCH   1   7
ATOM      7  C   UNL     1     -32.286 -12.367  12.487  0.00  0.00    +0.203 C 
BRANCH   7   9
ATOM      8  N   UNL     1     -34.683 -11.690  11.938  0.00  0.00    -0.327 N 
ATOM      9  C   UNL     1     -33.738 -12.708  12.267  0.00  0.00    +0.239 C 
ATOM     10  O   UNL     1     -34.118 -13.907  12.353  0.00  0.00    -0.273 OA
ATOM     11  H   UNL     1     -34.388 -10.691  11.857  0.00  0.00    +0.145 HD
ATOM     12  H   UNL     1     -35.685 -11.935  11.774  0.00  0.00    +0.145 HD
ENDBRANCH   7   9
BRANCH   7  13
ATOM     13  O   UNL     1     -31.486 -13.412  11.997  0.00  0.00    -0.382 OA
ATOM     14  H   UNL     1     -32.104 -14.128  11.693  0.00  0.00    +0.210 HD
ENDBRANCH   7  13
ENDBRANCH   1   7
BRANCH   4  15
ATOM     15  C   UNL     1     -31.579 -11.997  18.168  0.00  0.00    +0.119 C 
BRANCH  15  16
ATOM     16  C   UNL     1     -30.154 -12.215  18.607  0.00  0.00    -0.030 A 
ATOM     17  C   UNL     1     -29.847 -13.167  19.592  0.00  0.00    +0.008 A 
ATOM     18  C   UNL     1     -28.526 -13.344  20.012  0.00  0.00    +0.041 A 
ATOM     19  C   UNL     1     -27.503 -12.570  19.455  0.00  0.00    +0.158 A 
ATOM     20  F   UNL     1     -26.222 -12.745  19.867  0.00  0.00    -0.202 F 
ATOM     21  C   UNL     1     -27.802 -11.616  18.479  0.00  0.00    +0.159 A 
ATOM     22  F   UNL     1     -26.813 -10.860  17.941  0.00  0.00    -0.202 F 
ATOM     23  C   UNL     1     -29.124 -11.436  18.057  0.00  0.00    +0.046 A 
ENDBRANCH  15  16
ENDBRANCH   4  15
TORSDOF 5
ENDMDL
