MODEL 1
REMARK VINA RESULT:    -4.507      0.000      0.000
REMARK INTER + INTRA:          -6.000
REMARK INTER:                  -5.561
REMARK INTRA:                  -0.439
REMARK UNBOUND:                -0.439
REMARK  Name = 
REMARK  6 active torsions:
REMARK  status: ('A' for Active; 'I' for Inactive)
REMARK    1  A    between atoms: C_1  and  N_2
REMARK    2  A    between atoms: N_2  and  C_3
REMARK    3  A    between atoms: C_4  and  C_6
REMARK    4  A    between atoms: C_9  and  O_12
REMARK    5  A    between atoms: O_12  and  C_13
REMARK    6  A    between atoms: C_13  and  C_14
REMARK                            x       y       z     vdW  Elec       q    Type
REMARK                         _______ _______ _______ _____ _____    ______ ____
ROOT
ATOM      1  C   UNL     1     -31.224 -13.223  15.253  0.00  0.00    +0.037 A 
ATOM      2  C   UNL     1     -30.808 -12.077  15.947  0.00  0.00    +0.016 A 
ATOM      3  C   UNL     1     -30.509 -12.143  17.311  0.00  0.00    +0.046 A 
ATOM      4  C   UNL     1     -30.608 -13.367  18.000  0.00  0.00    +0.121 A 
ATOM      5  C   UNL     1     -31.003 -14.513  17.301  0.00  0.00    +0.046 A 
ATOM      6  C   UNL     1     -31.302 -14.446  15.937  0.00  0.00    +0.016 A 
ENDROOT
BRANCH   1  10
ATOM      7  C   UNL     1     -33.703 -11.903  14.069  0.00  0.00    +0.132 C 
ATOM      8  N   UNL     1     -32.840 -12.822  13.319  0.00  0.00    -0.304 N 
ATOM      9  C   UNL     1     -33.240 -13.287  11.989  0.00  0.00    +0.132 C 
ATOM     10  C   UNL     1     -31.522 -13.147  13.806  0.00  0.00    +0.246 C 
ATOM     11  O   UNL     1     -30.592 -13.363  12.983  0.00  0.00    -0.270 OA
ENDBRANCH   1  10
BRANCH   4  12
ATOM     12  O   UNL     1     -30.321 -13.486  19.368  0.00  0.00    -0.487 OA
BRANCH  12  13
ATOM     13  C   UNL     1     -29.578 -12.532  20.122  0.00  0.00    +0.266 C 
BRANCH  13  14
ATOM     14  C   UNL     1     -28.193 -13.059  20.356  0.00  0.00    +0.008 A 
ATOM     15  C   UNL     1     -27.952 -14.015  21.353  0.00  0.00    +0.010 A 
ATOM     16  C   UNL     1     -26.665 -14.524  21.534  0.00  0.00    +0.020 A 
ATOM     17  C   UNL     1     -25.632 -14.082  20.707  0.00  0.00    +0.111 A 
ATOM     18  N   UNL     1     -25.883 -13.166  19.733  0.00  0.00    -0.263 NA
ATOM     19  C   UNL     1     -27.128 -12.654  19.537  0.00  0.00    +0.117 A 
ENDBRANCH  13  14
ENDBRANCH  12  13
ENDBRANCH   4  12
TORSDOF 4
ENDMDL
MODEL 2
REMARK VINA RESULT:    -4.417      2.249      2.545
REMARK INTER + INTRA:          -5.889
REMARK INTER:                  -5.505
REMARK INTRA:                  -0.384
REMARK UNBOUND:                -0.439
REMARK  Name = 
REMARK  6 active torsions:
REMARK  status: ('A' for Active; 'I' for Inactive)
REMARK    1  A    between atoms: C_1  and  N_2
REMARK    2  A    between atoms: N_2  and  C_3
REMARK    3  A    between atoms: C_4  and  C_6
REMARK    4  A    between atoms: C_9  and  O_12
REMARK    5  A    between atoms: O_12  and  C_13
REMARK    6  A    between atoms: C_13  and  C_14
REMARK                            x       y       z     vdW  Elec       q    Type
REMARK                         _______ _______ _______ _____ _____    ______ ____
ROOT
ATOM      1  C   UNL     1     -32.734 -12.236  17.522  0.00  0.00    +0.037 A 
ATOM      2  C   UNL     1     -32.794 -11.636  18.789  0.00  0.00    +0.016 A 
ATOM      3  C   UNL     1     -31.949 -12.064  19.818  0.00  0.00    +0.046 A 
ATOM      4  C   UNL     1     -31.017 -13.093  19.587  0.00  0.00    +0.121 A 
ATOM      5  C   UNL     1     -30.945 -13.676  18.317  0.00  0.00    +0.046 A 
ATOM      6  C   UNL     1     -31.790 -13.248  17.289  0.00  0.00    +0.016 A 
ENDROOT
BRANCH   1  10
ATOM      7  C   UNL     1     -31.839 -10.460  15.212  0.00  0.00    +0.132 C 
ATOM      8  N   UNL     1     -33.245 -10.674  15.570  0.00  0.00    -0.304 N 
ATOM      9  C   UNL     1     -34.297  -9.888  14.921  0.00  0.00    +0.132 C 
ATOM     10  C   UNL     1     -33.620 -11.765  16.436  0.00  0.00    +0.246 C 
ATOM     11  O   UNL     1     -34.727 -12.342  16.263  0.00  0.00    -0.270 OA
ENDBRANCH   1  10
BRANCH   4  12
ATOM     12  O   UNL     1     -30.148 -13.560  20.585  0.00  0.00    -0.487 OA
BRANCH  12  13
ATOM     13  C   UNL     1     -29.237 -12.738  21.309  0.00  0.00    +0.266 C 
BRANCH  13  14
ATOM     14  C   UNL     1     -27.841 -13.243  21.096  0.00  0.00    +0.008 A 
ATOM     15  C   UNL     1     -27.216 -14.044  22.062  0.00  0.00    +0.010 A 
ATOM     16  C   UNL     1     -25.931 -14.537  21.834  0.00  0.00    +0.020 A 
ATOM     17  C   UNL     1     -25.286 -14.236  20.633  0.00  0.00    +0.111 A 
ATOM     18  N   UNL     1     -25.911 -13.472  19.697  0.00  0.00    -0.263 NA
ATOM     19  C   UNL     1     -27.162 -12.978  19.897  0.00  0.00    +0.117 A 
ENDBRANCH  13  14
ENDBRANCH  12  13
ENDBRANCH   4  12
TORSDOF 4
ENDMDL
MODEL 3
REMARK VINA RESULT:    -4.235      1.650      2.038
REMARK INTER + INTRA:          -5.664
REMARK INTER:                  -5.290
REMARK INTRA:                  -0.374
REMARK UNBOUND:                -0.439
REMARK  Name = 
REMARK  6 active torsions:
REMARK  status: ('A' for Active; 'I' for Inactive)
REMARK    1  A    between atoms: C_1  and  N_2
REMARK    2  A    between atoms: N_2  and  C_3
REMARK    3  A    between atoms: C_4  and  C_6
REMARK    4  A    between atoms: C_9  and  O_12
REMARK    5  A    between atoms: O_12  and  C_13
REMARK    6  A    between atoms: C_13  and  C_14
REMARK                            x       y       z     vdW  Elec       q    Type
REMARK                         _______ _______ _______ _____ _____    ______ ____
ROOT
ATOM      1  C   UNL     1     -32.196 -11.723  15.348  0.00  0.00    +0.037 A 
ATOM      2  C   UNL     1     -31.674 -10.422  15.412  0.00  0.00    +0.016 A 
ATOM      3  C   UNL     1     -30.677 -10.103  16.339  0.00  0.00    +0.046 A 
ATOM      4  C   UNL     1     -30.175 -11.089  17.209  0.00  0.00    +0.121 A 
ATOM      5  C   UNL     1     -30.682 -12.390  17.129  0.00  0.00    +0.046 A 
ATOM      6  C   UNL     1     -31.679 -12.710  16.202  0.00  0.00    +0.016 A 
ENDROOT
BRANCH   1  10
ATOM      7  C   UNL     1     -31.674 -13.184  12.724  0.00  0.00    +0.132 C 
ATOM      8  N   UNL     1     -32.904 -12.435  13.002  0.00  0.00    -0.304 N 
ATOM      9  C   UNL     1     -33.885 -12.212  11.938  0.00  0.00    +0.132 C 
ATOM     10  C   UNL     1     -33.238 -12.056  14.353  0.00  0.00    +0.246 C 
ATOM     11  O   UNL     1     -34.448 -12.013  14.704  0.00  0.00    -0.270 OA
ENDBRANCH   1  10
BRANCH   4  12
ATOM     12  O   UNL     1     -29.177 -10.820  18.157  0.00  0.00    -0.487 OA
BRANCH  12  13
ATOM     13  C   UNL     1     -29.331 -10.999  19.562  0.00  0.00    +0.266 C 
BRANCH  13  14
ATOM     14  C   UNL     1     -28.426 -12.105  20.020  0.00  0.00    +0.008 A 
ATOM     15  C   UNL     1     -28.770 -12.897  21.123  0.00  0.00    +0.010 A 
ATOM     16  C   UNL     1     -27.937 -13.946  21.515  0.00  0.00    +0.020 A 
ATOM     17  C   UNL     1     -26.773 -14.203  20.790  0.00  0.00    +0.111 A 
ATOM     18  N   UNL     1     -26.460 -13.436  19.711  0.00  0.00    -0.263 NA
ATOM     19  C   UNL     1     -27.254 -12.408  19.310  0.00  0.00    +0.117 A 
ENDBRANCH  13  14
ENDBRANCH  12  13
ENDBRANCH   4  12
TORSDOF 4
ENDMDL
MODEL 4
REMARK VINA RESULT:    -4.101      3.046      3.326
REMARK INTER + INTRA:          -5.499
REMARK INTER:                  -5.098
REMARK INTRA:                  -0.401
REMARK UNBOUND:                -0.439
REMARK  Name = 
REMARK  6 active torsions:
REMARK  status: ('A' for Active; 'I' for Inactive)
REMARK    1  A    between atoms: C_1  and  N_2
REMARK    2  A    between atoms: N_2  and  C_3
REMARK    3  A    between atoms: C_4  and  C_6
REMARK    4  A    between atoms: C_9  and  O_12
REMARK    5  A    between atoms: O_12  and  C_13
REMARK    6  A    between atoms: C_13  and  C_14
REMARK                            x       y       z     vdW  Elec       q    Type
REMARK                         _______ _______ _______ _____ _____    ______ ____
ROOT
ATOM      1  C   UNL     1     -32.380  -9.550  16.768  0.00  0.00    +0.037 A 
ATOM      2  C   UNL     1     -31.124  -9.893  16.246  0.00  0.00    +0.016 A 
ATOM      3  C   UNL     1     -30.059 -10.194  17.101  0.00  0.00    +0.046 A 
ATOM      4  C   UNL     1     -30.242 -10.172  18.497  0.00  0.00    +0.121 A 
ATOM      5  C   UNL     1     -31.501  -9.849  19.014  0.00  0.00    +0.046 A 
ATOM      6  C   UNL     1     -32.566  -9.548  18.160  0.00  0.00    +0.016 A 
ENDROOT
BRANCH   1  10
ATOM      7  C   UNL     1     -34.326 -11.630  15.683  0.00  0.00    +0.132 C 
ATOM      8  N   UNL     1     -34.178 -10.286  15.113  0.00  0.00    -0.304 N 
ATOM      9  C   UNL     1     -34.854  -9.940  13.861  0.00  0.00    +0.132 C 
ATOM     10  C   UNL     1     -33.505  -9.249  15.856  0.00  0.00    +0.246 C 
ATOM     11  O   UNL     1     -33.885  -8.054  15.735  0.00  0.00    -0.270 OA
ENDBRANCH   1  10
BRANCH   4  12
ATOM     12  O   UNL     1     -29.207 -10.464  19.397  0.00  0.00    -0.487 OA
BRANCH  12  13
ATOM     13  C   UNL     1     -29.369 -11.225  20.591  0.00  0.00    +0.266 C 
BRANCH  13  14
ATOM     14  C   UNL     1     -28.333 -12.309  20.630  0.00  0.00    +0.008 A 
ATOM     15  C   UNL     1     -28.201 -13.131  21.757  0.00  0.00    +0.010 A 
ATOM     16  C   UNL     1     -27.258 -14.160  21.764  0.00  0.00    +0.020 A 
ATOM     17  C   UNL     1     -26.464 -14.368  20.635  0.00  0.00    +0.111 A 
ATOM     18  N   UNL     1     -26.615 -13.573  19.541  0.00  0.00    -0.263 NA
ATOM     19  C   UNL     1     -27.525 -12.563  19.511  0.00  0.00    +0.117 A 
ENDBRANCH  13  14
ENDBRANCH  12  13
ENDBRANCH   4  12
TORSDOF 4
ENDMDL
MODEL 5
REMARK VINA RESULT:    -3.891      2.284      7.421
REMARK INTER + INTRA:          -5.240
REMARK INTER:                  -4.795
REMARK INTRA:                  -0.445
REMARK UNBOUND:                -0.439
REMARK  Name = 
REMARK  6 active torsions:
REMARK  status: ('A' for Active; 'I' for Inactive)
REMARK    1  A    between atoms: C_1  and  N_2
REMARK    2  A    between atoms: N_2  and  C_3
REMARK    3  A    between atoms: C_4  and  C_6
REMARK    4  A    between atoms: C_9  and  O_12
REMARK    5  A    between atoms: O_12  and  C_13
REMARK    6  A    between atoms: C_13  and  C_14
REMARK                            x       y       z     vdW  Elec       q    Type
REMARK                         _______ _______ _______ _____ _____    ______ ____
ROOT
ATOM      1  C   UNL     1     -30.135 -13.270  18.818  0.00  0.00    +0.037 A 
ATOM      2  C   UNL     1     -29.062 -13.179  17.918  0.00  0.00    +0.016 A 
ATOM      3  C   UNL     1     -29.213 -13.595  16.591  0.00  0.00    +0.046 A 
ATOM      4  C   UNL     1     -30.449 -14.095  16.141  0.00  0.00    +0.121 A 
ATOM      5  C   UNL     1     -31.523 -14.166  17.035  0.00  0.00    +0.046 A 
ATOM      6  C   UNL     1     -31.372 -13.751  18.361  0.00  0.00    +0.016 A 
ENDROOT
BRANCH   1  10
ATOM      7  C   UNL     1     -31.082 -10.571  19.873  0.00  0.00    +0.132 C 
ATOM      8  N   UNL     1     -30.124 -11.426  20.582  0.00  0.00    -0.304 N 
ATOM      9  C   UNL     1     -29.436 -10.927  21.775  0.00  0.00    +0.132 C 
ATOM     10  C   UNL     1     -29.971 -12.812  20.215  0.00  0.00    +0.246 C 
ATOM     11  O   UNL     1     -29.699 -13.663  21.104  0.00  0.00    -0.270 OA
ENDBRANCH   1  10
BRANCH   4  12
ATOM     12  O   UNL     1     -30.652 -14.526  14.821  0.00  0.00    -0.487 OA
BRANCH  12  13
ATOM     13  C   UNL     1     -30.543 -13.688  13.674  0.00  0.00    +0.266 C 
BRANCH  13  14
ATOM     14  C   UNL     1     -31.895 -13.131  13.340  0.00  0.00    +0.008 A 
ATOM     15  C   UNL     1     -32.419 -12.049  14.060  0.00  0.00    +0.010 A 
ATOM     16  C   UNL     1     -33.662 -11.517  13.714  0.00  0.00    +0.020 A 
ATOM     17  C   UNL     1     -34.365 -12.064  12.639  0.00  0.00    +0.111 A 
ATOM     18  N   UNL     1     -33.836 -13.103  11.938  0.00  0.00    -0.263 NA
ATOM     19  C   UNL     1     -32.628 -13.640  12.257  0.00  0.00    +0.117 A 
ENDBRANCH  13  14
ENDBRANCH  12  13
ENDBRANCH   4  12
TORSDOF 4
ENDMDL
MODEL 6
REMARK VINA RESULT:    -3.875      3.715      6.593
REMARK INTER + INTRA:          -5.220
REMARK INTER:                  -4.732
REMARK INTRA:                  -0.488
REMARK UNBOUND:                -0.439
REMARK  Name = 
REMARK  6 active torsions:
REMARK  status: ('A' for Active; 'I' for Inactive)
REMARK    1  A    between atoms: C_1  and  N_2
REMARK    2  A    between atoms: N_2  and  C_3
REMARK    3  A    between atoms: C_4  and  C_6
REMARK    4  A    between atoms: C_9  and  O_12
REMARK    5  A    between atoms: O_12  and  C_13
REMARK    6  A    between atoms: C_13  and  C_14
REMARK                            x       y       z     vdW  Elec       q    Type
REMARK                         _______ _______ _______ _____ _____    ______ ____
ROOT
ATOM      1  C   UNL     1     -30.462  -9.577  19.117  0.00  0.00    +0.037 A 
ATOM      2  C   UNL     1     -29.765 -10.561  19.835  0.00  0.00    +0.016 A 
ATOM      3  C   UNL     1     -29.276 -11.699  19.186  0.00  0.00    +0.046 A 
ATOM      4  C   UNL     1     -29.465 -11.862  17.800  0.00  0.00    +0.121 A 
ATOM      5  C   UNL     1     -30.143 -10.870  17.084  0.00  0.00    +0.046 A 
ATOM      6  C   UNL     1     -30.632  -9.732  17.733  0.00  0.00    +0.016 A 
ENDROOT
BRANCH   1  10
ATOM      7  C   UNL     1     -33.330  -9.199  20.079  0.00  0.00    +0.132 C 
ATOM      8  N   UNL     1     -32.371  -8.097  19.940  0.00  0.00    -0.304 N 
ATOM      9  C   UNL     1     -32.816  -6.711  20.100  0.00  0.00    +0.132 C 
ATOM     10  C   UNL     1     -30.961  -8.369  19.809  0.00  0.00    +0.246 C 
ATOM     11  O   UNL     1     -30.126  -7.564  20.303  0.00  0.00    -0.270 OA
ENDBRANCH   1  10
BRANCH   4  12
ATOM     12  O   UNL     1     -28.996 -12.984  17.103  0.00  0.00    -0.487 OA
BRANCH  12  13
ATOM     13  C   UNL     1     -29.803 -14.098  16.732  0.00  0.00    +0.266 C 
BRANCH  13  14
ATOM     14  C   UNL     1     -29.733 -14.284  15.245  0.00  0.00    +0.008 A 
ATOM     15  C   UNL     1     -28.597 -14.848  14.649  0.00  0.00    +0.010 A 
ATOM     16  C   UNL     1     -28.562 -15.050  13.268  0.00  0.00    +0.020 A 
ATOM     17  C   UNL     1     -29.671 -14.698  12.497  0.00  0.00    +0.111 A 
ATOM     18  N   UNL     1     -30.773 -14.168  13.091  0.00  0.00    -0.263 NA
ATOM     19  C   UNL     1     -30.832 -13.960  14.433  0.00  0.00    +0.117 A 
ENDBRANCH  13  14
ENDBRANCH  12  13
ENDBRANCH   4  12
TORSDOF 4
ENDMDL
MODEL 7
REMARK VINA RESULT:    -3.846      4.067      5.737
REMARK INTER + INTRA:          -5.184
REMARK INTER:                  -4.520
REMARK INTRA:                  -0.664
REMARK UNBOUND:                -0.439
REMARK  Name = 
REMARK  6 active torsions:
REMARK  status: ('A' for Active; 'I' for Inactive)
REMARK    1  A    between atoms: C_1  and  N_2
REMARK    2  A    between atoms: N_2  and  C_3
REMARK    3  A    between atoms: C_4  and  C_6
REMARK    4  A    between atoms: C_9  and  O_12
REMARK    5  A    between atoms: O_12  and  C_13
REMARK    6  A    between atoms: C_13  and  C_14
REMARK                            x       y       z     vdW  Elec       q    Type
REMARK                         _______ _______ _______ _____ _____    ______ ____
ROOT
ATOM      1  C   UNL     1     -33.509  -9.750  16.423  0.00  0.00    +0.037 A 
ATOM      2  C   UNL     1     -34.074 -10.915  16.965  0.00  0.00    +0.016 A 
ATOM      3  C   UNL     1     -33.302 -12.069  17.123  0.00  0.00    +0.046 A 
ATOM      4  C   UNL     1     -31.943 -12.070  16.753  0.00  0.00    +0.121 A 
ATOM      5  C   UNL     1     -31.378 -10.901  16.231  0.00  0.00    +0.046 A 
ATOM      6  C   UNL     1     -32.150  -9.747  16.074  0.00  0.00    +0.016 A 
ENDROOT
BRANCH   1  10
ATOM      7  C   UNL     1     -35.044  -8.995  13.900  0.00  0.00    +0.132 C 
ATOM      8  N   UNL     1     -34.753  -8.049  14.983  0.00  0.00    -0.304 N 
ATOM      9  C   UNL     1     -35.048  -6.625  14.814  0.00  0.00    +0.132 C 
ATOM     10  C   UNL     1     -34.330  -8.528  16.276  0.00  0.00    +0.246 C 
ATOM     11  O   UNL     1     -34.673  -7.899  17.313  0.00  0.00    -0.270 OA
ENDBRANCH   1  10
BRANCH   4  12
ATOM     12  O   UNL     1     -31.126 -13.202  16.889  0.00  0.00    -0.487 OA
BRANCH  12  13
ATOM     13  C   UNL     1     -31.306 -14.418  16.169  0.00  0.00    +0.266 C 
BRANCH  13  14
ATOM     14  C   UNL     1     -30.318 -14.475  15.042  0.00  0.00    +0.008 A 
ATOM     15  C   UNL     1     -30.731 -14.263  13.720  0.00  0.00    +0.010 A 
ATOM     16  C   UNL     1     -29.794 -14.282  12.685  0.00  0.00    +0.020 A 
ATOM     17  C   UNL     1     -28.449 -14.499  12.985  0.00  0.00    +0.111 A 
ATOM     18  N   UNL     1     -28.060 -14.686  14.275  0.00  0.00    -0.263 NA
ATOM     19  C   UNL     1     -28.953 -14.674  15.300  0.00  0.00    +0.117 A 
ENDBRANCH  13  14
ENDBRANCH  12  13
ENDBRANCH   4  12
TORSDOF 4
ENDMDL
MODEL 8
REMARK VINA RESULT:    -3.744      4.308      6.735
REMARK INTER + INTRA:          -5.058
REMARK INTER:                  -4.590
REMARK INTRA:                  -0.468
REMARK UNBOUND:                -0.439
REMARK  Name = 
REMARK  6 active torsions:
REMARK  status: ('A' for Active; 'I' for Inactive)
REMARK    1  A    between atoms: C_1  and  N_2
REMARK    2  A    between atoms: N_2  and  C_3
REMARK    3  A    between atoms: C_4  and  C_6
REMARK    4  A    between atoms: C_9  and  O_12
REMARK    5  A    between atoms: O_12  and  C_13
REMARK    6  A    between atoms: C_13  and  C_14
REMARK                            x       y       z     vdW  Elec       q    Type
REMARK                         _______ _______ _______ _____ _____    ______ ____
ROOT
ATOM      1  C   UNL     1     -32.589  -9.080  17.817  0.00  0.00    +0.037 A 
ATOM      2  C   UNL     1     -31.274  -9.429  17.475  0.00  0.00    +0.016 A 
ATOM      3  C   UNL     1     -31.011 -10.136  16.297  0.00  0.00    +0.046 A 
ATOM      4  C   UNL     1     -32.064 -10.492  15.433  0.00  0.00    +0.121 A 
ATOM      5  C   UNL     1     -33.373 -10.125  15.767  0.00  0.00    +0.046 A 
ATOM      6  C   UNL     1     -33.636  -9.419  16.944  0.00  0.00    +0.016 A 
ENDROOT
BRANCH   1  10
ATOM      7  C   UNL     1     -33.328 -10.340  20.492  0.00  0.00    +0.132 C 
ATOM      8  N   UNL     1     -33.519  -8.917  20.187  0.00  0.00    -0.304 N 
ATOM      9  C   UNL     1     -34.249  -8.057  21.121  0.00  0.00    +0.132 C 
ATOM     10  C   UNL     1     -32.856  -8.318  19.056  0.00  0.00    +0.246 C 
ATOM     11  O   UNL     1     -32.482  -7.116  19.121  0.00  0.00    -0.270 OA
ENDBRANCH   1  10
BRANCH   4  12
ATOM     12  O   UNL     1     -31.854 -11.201  14.242  0.00  0.00    -0.487 OA
BRANCH  12  13
ATOM     13  C   UNL     1     -32.268 -12.546  14.021  0.00  0.00    +0.266 C 
BRANCH  13  14
ATOM     14  C   UNL     1     -31.079 -13.454  14.136  0.00  0.00    +0.008 A 
ATOM     15  C   UNL     1     -30.379 -13.861  12.992  0.00  0.00    +0.010 A 
ATOM     16  C   UNL     1     -29.251 -14.674  13.117  0.00  0.00    +0.020 A 
ATOM     17  C   UNL     1     -28.826 -15.062  14.388  0.00  0.00    +0.111 A 
ATOM     18  N   UNL     1     -29.505 -14.646  15.491  0.00  0.00    -0.263 NA
ATOM     19  C   UNL     1     -30.607 -13.854  15.395  0.00  0.00    +0.117 A 
ENDBRANCH  13  14
ENDBRANCH  12  13
ENDBRANCH   4  12
TORSDOF 4
ENDMDL
