MODEL 1
REMARK VINA RESULT:     6.696      0.000      0.000
REMARK INTER + INTRA:           8.640
REMARK INTER:                   7.870
REMARK INTRA:                   0.770
REMARK UNBOUND:                 0.770
REMARK  Name = 
REMARK  3 active torsions:
REMARK  status: ('A' for Active; 'I' for Inactive)
REMARK    1  A    between atoms: C_2  and  C_3
REMARK    2  A    between atoms: N_6  and  S_9
REMARK    3  A    between atoms: S_9  and  C_12
REMARK                            x       y       z     vdW  Elec       q    Type
REMARK                         _______ _______ _______ _____ _____    ______ ____
ROOT
ATOM      1  C   UNL     1     -33.039  -9.583  16.050  0.00  0.00    +0.078 C 
ATOM      2  C   UNL     1     -32.761 -10.318  17.382  0.00  0.00    +0.030 C 
ATOM      3  C   UNL     1     -32.300 -11.770  17.166  0.00  0.00    +0.110 C 
ATOM      4  N   UNL     1     -31.671 -11.915  15.844  0.00  0.00    -0.177 NA
ATOM      5  C   UNL     1     -32.664 -11.753  14.761  0.00  0.00    +0.110 C 
ATOM      6  C   UNL     1     -33.614 -10.558  15.007  0.00  0.00    +0.030 C 
ENDROOT
BRANCH   1   8
ATOM      7  O   UNL     1     -35.062  -8.372  15.650  0.00  0.00    -0.275 OA
ATOM      8  C   UNL     1     -33.966  -8.407  16.273  0.00  0.00    +0.219 C 
ATOM      9  N   UNL     1     -33.641  -7.336  17.186  0.00  0.00    -0.301 N 
ATOM     10  C   UNL     1     -34.266  -6.022  16.975  0.00  0.00    +0.108 C 
ATOM     11  C   UNL     1     -33.640  -4.946  17.871  0.00  0.00    +0.023 C 
ATOM     12  C   UNL     1     -33.636  -5.358  19.362  0.00  0.00    -0.005 C 
ATOM     13  C   UNL     1     -34.964  -4.951  20.043  0.00  0.00    +0.004 C 
ATOM     14  C   UNL     1     -35.062  -5.550  21.449  0.00  0.00    +0.000 C 
ATOM     15  C   UNL     1     -35.025  -7.092  21.432  0.00  0.00    +0.000 C 
ATOM     16  C   UNL     1     -34.471  -7.684  20.124  0.00  0.00    +0.005 C 
ATOM     17  C   UNL     1     -33.275  -6.867  19.586  0.00  0.00    +0.010 C 
ATOM     18  C   UNL     1     -32.712  -7.527  18.313  0.00  0.00    +0.111 C 
ENDBRANCH   1   8
BRANCH   4  19
ATOM     19  S   UNL     1     -30.881 -13.468  15.711  0.00  0.00    +0.061 S 
ATOM     20  O   UNL     1     -31.894 -14.559  15.919  0.00  0.00    -0.153 OA
ATOM     21  O   UNL     1     -30.308 -13.622  14.329  0.00  0.00    -0.153 OA
BRANCH  19  22
ATOM     22  C   UNL     1     -29.583 -13.638  16.895  0.00  0.00    +0.109 A 
ATOM     23  C   UNL     1     -28.293 -13.998  16.487  0.00  0.00    +0.032 A 
ATOM     24  C   UNL     1     -27.276 -14.161  17.430  0.00  0.00    +0.051 A 
ATOM     25  C   UNL     1     -27.537 -13.976  18.792  0.00  0.00    +0.162 A 
ATOM     26  O   UNL     1     -26.526 -14.273  19.714  0.00  0.00    -0.488 OA
ATOM     27  C   UNL     1     -26.796 -14.807  21.008  0.00  0.00    +0.232 C 
ATOM     28  C   UNL     1     -27.209 -13.725  22.007  0.00  0.00    +0.082 C 
ATOM     29  C   UNL     1     -28.109 -12.644  21.405  0.00  0.00    +0.232 C 
ATOM     30  O   UNL     1     -29.093 -13.191  20.529  0.00  0.00    -0.488 OA
ATOM     31  C   UNL     1     -28.817 -13.538  19.201  0.00  0.00    +0.164 A 
ATOM     32  C   UNL     1     -29.837 -13.405  18.253  0.00  0.00    +0.078 A 
ENDBRANCH  19  22
ENDBRANCH   4  19
TORSDOF 3
ENDMDL
MODEL 2
REMARK VINA RESULT:     6.932      3.063      8.823
REMARK INTER + INTRA:           8.917
REMARK INTER:                   7.842
REMARK INTRA:                   1.075
REMARK UNBOUND:                 0.770
REMARK  Name = 
REMARK  3 active torsions:
REMARK  status: ('A' for Active; 'I' for Inactive)
REMARK    1  A    between atoms: C_2  and  C_3
REMARK    2  A    between atoms: N_6  and  S_9
REMARK    3  A    between atoms: S_9  and  C_12
REMARK                            x       y       z     vdW  Elec       q    Type
REMARK                         _______ _______ _______ _____ _____    ______ ____
ROOT
ATOM      1  C   UNL     1     -28.844 -12.705  17.737  0.00  0.00    +0.078 C 
ATOM      2  C   UNL     1     -30.213 -11.996  17.620  0.00  0.00    +0.030 C 
ATOM      3  C   UNL     1     -30.677 -11.391  18.957  0.00  0.00    +0.110 C 
ATOM      4  N   UNL     1     -29.518 -11.098  19.815  0.00  0.00    -0.177 NA
ATOM      5  C   UNL     1     -28.860 -12.343  20.263  0.00  0.00    +0.110 C 
ATOM      6  C   UNL     1     -28.698 -13.370  19.118  0.00  0.00    +0.030 C 
ENDROOT
BRANCH   1   8
ATOM      7  O   UNL     1     -28.206 -14.853  16.900  0.00  0.00    -0.275 OA
ATOM      8  C   UNL     1     -28.668 -13.713  16.621  0.00  0.00    +0.219 C 
ATOM      9  N   UNL     1     -29.027 -13.414  15.254  0.00  0.00    -0.301 N 
ATOM     10  C   UNL     1     -28.369 -14.168  14.177  0.00  0.00    +0.108 C 
ATOM     11  C   UNL     1     -28.677 -13.572  12.798  0.00  0.00    +0.023 C 
ATOM     12  C   UNL     1     -30.197 -13.417  12.556  0.00  0.00    -0.005 C 
ATOM     13  C   UNL     1     -30.793 -14.718  11.970  0.00  0.00    +0.004 C 
ATOM     14  C   UNL     1     -32.322 -14.654  11.940  0.00  0.00    +0.000 C 
ATOM     15  C   UNL     1     -32.929 -14.481  13.347  0.00  0.00    +0.000 C 
ATOM     16  C   UNL     1     -31.924 -13.980  14.398  0.00  0.00    +0.005 C 
ATOM     17  C   UNL     1     -30.975 -12.906  13.819  0.00  0.00    +0.010 C 
ATOM     18  C   UNL     1     -30.028 -12.388  14.917  0.00  0.00    +0.111 C 
ENDBRANCH   1   8
BRANCH   4  19
ATOM     19  S   UNL     1     -30.006 -10.143  21.194  0.00  0.00    +0.061 S 
ATOM     20  O   UNL     1     -30.922 -10.958  22.062  0.00  0.00    -0.153 OA
ATOM     21  O   UNL     1     -28.793  -9.781  22.006  0.00  0.00    -0.153 OA
BRANCH  19  22
ATOM     22  C   UNL     1     -30.829  -8.662  20.698  0.00  0.00    +0.109 A 
ATOM     23  C   UNL     1     -30.255  -7.411  20.954  0.00  0.00    +0.032 A 
ATOM     24  C   UNL     1     -30.923  -6.241  20.588  0.00  0.00    +0.051 A 
ATOM     25  C   UNL     1     -32.176  -6.306  19.969  0.00  0.00    +0.162 A 
ATOM     26  O   UNL     1     -32.869  -5.112  19.733  0.00  0.00    -0.488 OA
ATOM     27  C   UNL     1     -34.291  -5.021  19.800  0.00  0.00    +0.232 C 
ATOM     28  C   UNL     1     -34.964  -5.512  18.517  0.00  0.00    +0.082 C 
ATOM     29  C   UNL     1     -34.288  -6.738  17.899  0.00  0.00    +0.232 C 
ATOM     30  O   UNL     1     -33.898  -7.690  18.886  0.00  0.00    -0.488 OA
ATOM     31  C   UNL     1     -32.724  -7.566  19.638  0.00  0.00    +0.164 A 
ATOM     32  C   UNL     1     -32.061  -8.732  20.035  0.00  0.00    +0.078 A 
ENDBRANCH  19  22
ENDBRANCH   4  19
TORSDOF 3
ENDMDL
MODEL 3
REMARK VINA RESULT:     8.812      3.559      5.198
REMARK INTER + INTRA:          11.127
REMARK INTER:                   9.642
REMARK INTRA:                   1.485
REMARK UNBOUND:                 0.770
REMARK  Name = 
REMARK  3 active torsions:
REMARK  status: ('A' for Active; 'I' for Inactive)
REMARK    1  A    between atoms: C_2  and  C_3
REMARK    2  A    between atoms: N_6  and  S_9
REMARK    3  A    between atoms: S_9  and  C_12
REMARK                            x       y       z     vdW  Elec       q    Type
REMARK                         _______ _______ _______ _____ _____    ______ ____
ROOT
ATOM      1  C   UNL     1     -33.507 -11.547  18.122  0.00  0.00    +0.078 C 
ATOM      2  C   UNL     1     -33.915 -10.368  17.209  0.00  0.00    +0.030 C 
ATOM      3  C   UNL     1     -33.735 -10.693  15.715  0.00  0.00    +0.110 C 
ATOM      4  N   UNL     1     -33.815 -12.146  15.495  0.00  0.00    -0.177 NA
ATOM      5  C   UNL     1     -32.654 -12.838  16.093  0.00  0.00    +0.110 C 
ATOM      6  C   UNL     1     -32.323 -12.316  17.511  0.00  0.00    +0.030 C 
ENDROOT
BRANCH   1   8
ATOM      7  O   UNL     1     -32.460 -11.772  20.261  0.00  0.00    -0.275 OA
ATOM      8  C   UNL     1     -33.182 -11.054  19.516  0.00  0.00    +0.219 C 
ATOM      9  N   UNL     1     -33.657  -9.783  20.011  0.00  0.00    -0.301 N 
ATOM     10  C   UNL     1     -33.778  -9.599  21.465  0.00  0.00    +0.108 C 
ATOM     11  C   UNL     1     -34.515  -8.300  21.813  0.00  0.00    +0.023 C 
ATOM     12  C   UNL     1     -33.886  -7.069  21.119  0.00  0.00    -0.005 C 
ATOM     13  C   UNL     1     -32.742  -6.483  21.980  0.00  0.00    +0.004 C 
ATOM     14  C   UNL     1     -31.969  -5.412  21.205  0.00  0.00    +0.000 C 
ATOM     15  C   UNL     1     -31.320  -5.971  19.922  0.00  0.00    +0.000 C 
ATOM     16  C   UNL     1     -31.917  -7.311  19.459  0.00  0.00    +0.005 C 
ATOM     17  C   UNL     1     -33.452  -7.347  19.638  0.00  0.00    +0.010 C 
ATOM     18  C   UNL     1     -34.016  -8.678  19.106  0.00  0.00    +0.111 C 
ENDBRANCH   1   8
BRANCH   4  19
ATOM     19  S   UNL     1     -33.915 -12.500  13.788  0.00  0.00    +0.061 S 
ATOM     20  O   UNL     1     -35.057 -13.446  13.543  0.00  0.00    -0.153 OA
ATOM     21  O   UNL     1     -34.191 -11.231  13.029  0.00  0.00    -0.153 OA
BRANCH  19  22
ATOM     22  C   UNL     1     -32.419 -13.217  13.185  0.00  0.00    +0.109 A 
ATOM     23  C   UNL     1     -32.443 -14.436  12.498  0.00  0.00    +0.032 A 
ATOM     24  C   UNL     1     -31.254 -15.016  12.050  0.00  0.00    +0.051 A 
ATOM     25  C   UNL     1     -30.027 -14.388  12.290  0.00  0.00    +0.162 A 
ATOM     26  O   UNL     1     -28.850 -15.062  11.938  0.00  0.00    -0.488 OA
ATOM     27  C   UNL     1     -27.643 -14.947  12.688  0.00  0.00    +0.232 C 
ATOM     28  C   UNL     1     -26.864 -13.677  12.342  0.00  0.00    +0.082 C 
ATOM     29  C   UNL     1     -27.755 -12.456  12.104  0.00  0.00    +0.232 C 
ATOM     30  O   UNL     1     -28.823 -12.380  13.045  0.00  0.00    -0.488 OA
ATOM     31  C   UNL     1     -30.004 -13.121  12.915  0.00  0.00    +0.164 A 
ATOM     32  C   UNL     1     -31.197 -12.562  13.386  0.00  0.00    +0.078 A 
ENDBRANCH  19  22
ENDBRANCH   4  19
TORSDOF 3
ENDMDL
