MODEL 1
REMARK VINA RESULT:    -4.587      0.000      0.000
REMARK INTER + INTRA:          -7.685
REMARK INTER:                  -6.732
REMARK INTRA:                  -0.953
REMARK UNBOUND:                -0.953
REMARK  Name = 
REMARK  9 active torsions:
REMARK  status: ('A' for Active; 'I' for Inactive)
REMARK    1  A    between atoms: C_1  and  O_2
REMARK    2  A    between atoms: O_2  and  C_3
REMARK    3  A    between atoms: C_5  and  C_6
REMARK    4  A    between atoms: C_11  and  O_12
REMARK    5  A    between atoms: O_12  and  C_13
REMARK    6  A    between atoms: C_13  and  C_14
REMARK    7  A    between atoms: C_18  and  O_20
REMARK    8  A    between atoms: O_20  and  C_21
REMARK    9  A    between atoms: C_21  and  C_22
REMARK                            x       y       z     vdW  Elec       q    Type
REMARK                         _______ _______ _______ _____ _____    ______ ____
ROOT
ATOM      1  C   UNL     1     -32.746 -10.987  15.475  0.00  0.00    +0.265 C 
ENDROOT
BRANCH   1   2
ATOM      2  C   UNL     1     -32.846 -11.862  14.251  0.00  0.00    -0.007 A 
ATOM      3  C   UNL     1     -34.079 -12.036  13.606  0.00  0.00    +0.007 A 
ATOM      4  C   UNL     1     -34.168 -12.831  12.461  0.00  0.00    +0.004 A 
ATOM      5  C   UNL     1     -33.025 -13.444  11.939  0.00  0.00    +0.045 A 
ATOM      6  C   UNL     1     -31.776 -13.259  12.562  0.00  0.00    +0.122 A 
ATOM      7  C   UNL     1     -31.695 -12.460  13.709  0.00  0.00    +0.052 A 
BRANCH   6   8
ATOM      8  O   UNL     1     -30.599 -13.847  12.076  0.00  0.00    -0.483 OA
BRANCH   8   9
ATOM      9  C   UNL     1     -29.955 -14.969  12.672  0.00  0.00    +0.324 C 
BRANCH   9  10
ATOM     10  C   UNL     1     -28.539 -14.609  12.990  0.00  0.00    +0.248 C 
ATOM     11  N   UNL     1     -27.622 -14.293  11.943  0.00  0.00    -0.327 N 
ATOM     12  O   UNL     1     -28.164 -14.544  14.191  0.00  0.00    -0.272 OA
ATOM     13  H   UNL     1     -26.637 -14.030  12.168  0.00  0.00    +0.145 HD
ATOM     14  H   UNL     1     -27.927 -14.312  10.945  0.00  0.00    +0.145 HD
ENDBRANCH   9  10
ENDBRANCH   8   9
ENDBRANCH   6   8
ENDBRANCH   1   2
BRANCH   1  15
ATOM     15  O   UNL     1     -32.290 -11.727  16.610  0.00  0.00    -0.482 OA
BRANCH  15  22
ATOM     16  C   UNL     1     -30.366 -10.589  17.721  0.00  0.00    +0.164 A 
ATOM     17  C   UNL     1     -29.075 -10.714  18.275  0.00  0.00    +0.068 A 
ATOM     18  C   UNL     1     -28.409 -11.942  18.262  0.00  0.00    +0.057 A 
ATOM     19  C   UNL     1     -29.020 -13.059  17.694  0.00  0.00    +0.042 A 
ATOM     20  C   UNL     1     -30.301 -12.957  17.147  0.00  0.00    +0.087 A 
ATOM     21 CL   UNL     1     -31.045 -14.390  16.451  0.00  0.00    -0.080 Cl
ATOM     22  C   UNL     1     -30.994 -11.734  17.164  0.00  0.00    +0.181 A 
BRANCH  16  24
ATOM     23  C   UNL     1     -31.416  -8.611  18.851  0.00  0.00    +0.277 C 
ATOM     24  O   UNL     1     -31.022  -9.349  17.699  0.00  0.00    -0.491 OA
ENDBRANCH  16  24
BRANCH  18  25
ATOM     25  C   UNL     1     -27.088 -12.053  18.827  0.00  0.00    +0.099 C 
ATOM     26  N   UNL     1     -26.027 -12.143  19.281  0.00  0.00    -0.191 NA
ENDBRANCH  18  25
ENDBRANCH  15  22
ENDBRANCH   1  15
TORSDOF 8
ENDMDL
MODEL 2
REMARK VINA RESULT:    -4.344      2.988      4.500
REMARK INTER + INTRA:          -7.328
REMARK INTER:                  -6.493
REMARK INTRA:                  -0.836
REMARK UNBOUND:                -0.953
REMARK  Name = 
REMARK  9 active torsions:
REMARK  status: ('A' for Active; 'I' for Inactive)
REMARK    1  A    between atoms: C_1  and  O_2
REMARK    2  A    between atoms: O_2  and  C_3
REMARK    3  A    between atoms: C_5  and  C_6
REMARK    4  A    between atoms: C_11  and  O_12
REMARK    5  A    between atoms: O_12  and  C_13
REMARK    6  A    between atoms: C_13  and  C_14
REMARK    7  A    between atoms: C_18  and  O_20
REMARK    8  A    between atoms: O_20  and  C_21
REMARK    9  A    between atoms: C_21  and  C_22
REMARK                            x       y       z     vdW  Elec       q    Type
REMARK                         _______ _______ _______ _____ _____    ______ ____
ROOT
ATOM      1  C   UNL     1     -30.035 -13.687  16.750  0.00  0.00    +0.265 C 
ENDROOT
BRANCH   1   2
ATOM      2  C   UNL     1     -29.884 -14.047  15.294  0.00  0.00    -0.007 A 
ATOM      3  C   UNL     1     -28.733 -14.712  14.846  0.00  0.00    +0.007 A 
ATOM      4  C   UNL     1     -28.601 -15.062  13.501  0.00  0.00    +0.004 A 
ATOM      5  C   UNL     1     -29.623 -14.768  12.594  0.00  0.00    +0.045 A 
ATOM      6  C   UNL     1     -30.794 -14.121  13.033  0.00  0.00    +0.122 A 
ATOM      7  C   UNL     1     -30.919 -13.774  14.383  0.00  0.00    +0.052 A 
BRANCH   6   8
ATOM      8  O   UNL     1     -31.851 -13.808  12.165  0.00  0.00    -0.483 OA
BRANCH   8   9
ATOM      9  C   UNL     1     -32.419 -12.509  12.025  0.00  0.00    +0.324 C 
BRANCH   9  10
ATOM     10  C   UNL     1     -33.906 -12.610  12.140  0.00  0.00    +0.248 C 
ATOM     11  N   UNL     1     -34.725 -11.459  11.938  0.00  0.00    -0.327 N 
ATOM     12  O   UNL     1     -34.443 -13.725  12.373  0.00  0.00    -0.272 OA
ATOM     13  H   UNL     1     -35.764 -11.533  12.006  0.00  0.00    +0.145 HD
ATOM     14  H   UNL     1     -34.297 -10.533  11.713  0.00  0.00    +0.145 HD
ENDBRANCH   9  10
ENDBRANCH   8   9
ENDBRANCH   6   8
ENDBRANCH   1   2
BRANCH   1  15
ATOM     15  O   UNL     1     -29.318 -12.493  17.071  0.00  0.00    -0.482 OA
BRANCH  15  22
ATOM     16  C   UNL     1     -29.343 -11.500  19.361  0.00  0.00    +0.164 A 
ATOM     17  C   UNL     1     -29.747 -10.428  20.184  0.00  0.00    +0.068 A 
ATOM     18  C   UNL     1     -30.501  -9.373  19.662  0.00  0.00    +0.057 A 
ATOM     19  C   UNL     1     -30.862  -9.376  18.316  0.00  0.00    +0.042 A 
ATOM     20  C   UNL     1     -30.465 -10.425  17.484  0.00  0.00    +0.087 A 
ATOM     21 CL   UNL     1     -30.929 -10.388  15.788  0.00  0.00    -0.080 Cl
ATOM     22  C   UNL     1     -29.694 -11.488  17.986  0.00  0.00    +0.181 A 
BRANCH  16  24
ATOM     23  C   UNL     1     -28.913 -13.236  21.119  0.00  0.00    +0.277 C 
ATOM     24  O   UNL     1     -28.619 -12.579  19.891  0.00  0.00    -0.491 OA
ENDBRANCH  16  24
BRANCH  18  25
ATOM     25  C   UNL     1     -30.911  -8.288  20.515  0.00  0.00    +0.099 C 
ATOM     26  N   UNL     1     -31.241  -7.415  21.201  0.00  0.00    -0.191 NA
ENDBRANCH  18  25
ENDBRANCH  15  22
ENDBRANCH   1  15
TORSDOF 8
ENDMDL
MODEL 3
REMARK VINA RESULT:    -4.304      2.131      2.378
REMARK INTER + INTRA:          -7.269
REMARK INTER:                  -6.210
REMARK INTRA:                  -1.059
REMARK UNBOUND:                -0.953
REMARK  Name = 
REMARK  9 active torsions:
REMARK  status: ('A' for Active; 'I' for Inactive)
REMARK    1  A    between atoms: C_1  and  O_2
REMARK    2  A    between atoms: O_2  and  C_3
REMARK    3  A    between atoms: C_5  and  C_6
REMARK    4  A    between atoms: C_11  and  O_12
REMARK    5  A    between atoms: O_12  and  C_13
REMARK    6  A    between atoms: C_13  and  C_14
REMARK    7  A    between atoms: C_18  and  O_20
REMARK    8  A    between atoms: O_20  and  C_21
REMARK    9  A    between atoms: C_21  and  C_22
REMARK                            x       y       z     vdW  Elec       q    Type
REMARK                         _______ _______ _______ _____ _____    ______ ____
ROOT
ATOM      1  C   UNL     1     -31.812  -9.596  16.840  0.00  0.00    +0.265 C 
ENDROOT
BRANCH   1   2
ATOM      2  C   UNL     1     -32.158 -10.539  15.717  0.00  0.00    -0.007 A 
ATOM      3  C   UNL     1     -33.384 -10.420  15.046  0.00  0.00    +0.007 A 
ATOM      4  C   UNL     1     -33.696 -11.282  13.992  0.00  0.00    +0.004 A 
ATOM      5  C   UNL     1     -32.782 -12.259  13.588  0.00  0.00    +0.045 A 
ATOM      6  C   UNL     1     -31.538 -12.375  14.236  0.00  0.00    +0.122 A 
ATOM      7  C   UNL     1     -31.231 -11.507  15.291  0.00  0.00    +0.052 A 
BRANCH   6   8
ATOM      8  O   UNL     1     -30.583 -13.334  13.866  0.00  0.00    -0.483 OA
BRANCH   8   9
ATOM      9  C   UNL     1     -30.430 -14.602  14.496  0.00  0.00    +0.324 C 
BRANCH   9  10
ATOM     10  C   UNL     1     -29.183 -14.593  15.320  0.00  0.00    +0.248 C 
ATOM     11  N   UNL     1     -27.946 -15.035  14.761  0.00  0.00    -0.327 N 
ATOM     12  O   UNL     1     -29.214 -14.153  16.499  0.00  0.00    -0.272 OA
ATOM     13  H   UNL     1     -27.073 -15.016  15.333  0.00  0.00    +0.145 HD
ATOM     14  H   UNL     1     -27.898 -15.373  13.774  0.00  0.00    +0.145 HD
ENDBRANCH   9  10
ENDBRANCH   8   9
ENDBRANCH   6   8
ENDBRANCH   1   2
BRANCH   1  15
ATOM     15  O   UNL     1     -32.084 -10.179  18.116  0.00  0.00    -0.482 OA
BRANCH  15  22
ATOM     16  C   UNL     1     -30.155 -10.340  19.692  0.00  0.00    +0.164 A 
ATOM     17  C   UNL     1     -29.345 -11.172  20.492  0.00  0.00    +0.068 A 
ATOM     18  C   UNL     1     -29.549 -12.554  20.519  0.00  0.00    +0.057 A 
ATOM     19  C   UNL     1     -30.563 -13.122  19.748  0.00  0.00    +0.042 A 
ATOM     20  C   UNL     1     -31.380 -12.314  18.956  0.00  0.00    +0.087 A 
ATOM     21 CL   UNL     1     -32.656 -13.065  18.008  0.00  0.00    -0.080 Cl
ATOM     22  C   UNL     1     -31.200 -10.921  18.926  0.00  0.00    +0.181 A 
BRANCH  16  24
ATOM     23  C   UNL     1     -30.642  -7.978  20.380  0.00  0.00    +0.277 C 
ATOM     24  O   UNL     1     -29.927  -8.957  19.633  0.00  0.00    -0.491 OA
ENDBRANCH  16  24
BRANCH  18  25
ATOM     25  C   UNL     1     -28.710 -13.392  21.336  0.00  0.00    +0.099 C 
ATOM     26  N   UNL     1     -28.037 -14.067  21.993  0.00  0.00    -0.191 NA
ENDBRANCH  18  25
ENDBRANCH  15  22
ENDBRANCH   1  15
TORSDOF 8
ENDMDL
MODEL 4
REMARK VINA RESULT:    -4.261      2.309      6.106
REMARK INTER + INTRA:          -7.206
REMARK INTER:                  -5.962
REMARK INTRA:                  -1.243
REMARK UNBOUND:                -0.953
REMARK  Name = 
REMARK  9 active torsions:
REMARK  status: ('A' for Active; 'I' for Inactive)
REMARK    1  A    between atoms: C_1  and  O_2
REMARK    2  A    between atoms: O_2  and  C_3
REMARK    3  A    between atoms: C_5  and  C_6
REMARK    4  A    between atoms: C_11  and  O_12
REMARK    5  A    between atoms: O_12  and  C_13
REMARK    6  A    between atoms: C_13  and  C_14
REMARK    7  A    between atoms: C_18  and  O_20
REMARK    8  A    between atoms: O_20  and  C_21
REMARK    9  A    between atoms: C_21  and  C_22
REMARK                            x       y       z     vdW  Elec       q    Type
REMARK                         _______ _______ _______ _____ _____    ______ ____
ROOT
ATOM      1  C   UNL     1     -33.041 -11.494  16.991  0.00  0.00    +0.265 C 
ENDROOT
BRANCH   1   2
ATOM      2  C   UNL     1     -31.693 -11.075  17.518  0.00  0.00    -0.007 A 
ATOM      3  C   UNL     1     -30.835 -10.296  16.728  0.00  0.00    +0.007 A 
ATOM      4  C   UNL     1     -29.594  -9.892  17.224  0.00  0.00    +0.004 A 
ATOM      5  C   UNL     1     -29.204 -10.246  18.518  0.00  0.00    +0.045 A 
ATOM      6  C   UNL     1     -30.064 -11.007  19.333  0.00  0.00    +0.122 A 
ATOM      7  C   UNL     1     -31.308 -11.408  18.829  0.00  0.00    +0.052 A 
BRANCH   6   8
ATOM      8  O   UNL     1     -29.724 -11.384  20.640  0.00  0.00    -0.483 OA
BRANCH   8   9
ATOM      9  C   UNL     1     -29.811 -12.714  21.143  0.00  0.00    +0.324 C 
BRANCH   9  10
ATOM     10  C   UNL     1     -28.500 -13.402  20.938  0.00  0.00    +0.248 C 
ATOM     11  N   UNL     1     -28.284 -14.216  19.786  0.00  0.00    -0.327 N 
ATOM     12  O   UNL     1     -27.565 -13.228  21.764  0.00  0.00    -0.272 OA
ATOM     13  H   UNL     1     -27.364 -14.686  19.638  0.00  0.00    +0.145 HD
ATOM     14  H   UNL     1     -29.039 -14.345  19.076  0.00  0.00    +0.145 HD
ENDBRANCH   9  10
ENDBRANCH   8   9
ENDBRANCH   6   8
ENDBRANCH   1   2
BRANCH   1  15
ATOM     15  O   UNL     1     -32.981 -12.774  16.358  0.00  0.00    -0.482 OA
BRANCH  15  22
ATOM     16  C   UNL     1     -32.071 -12.777  14.034  0.00  0.00    +0.164 A 
ATOM     17  C   UNL     1     -31.080 -13.250  13.150  0.00  0.00    +0.068 A 
ATOM     18  C   UNL     1     -30.103 -14.148  13.588  0.00  0.00    +0.057 A 
ATOM     19  C   UNL     1     -30.105 -14.585  14.913  0.00  0.00    +0.042 A 
ATOM     20  C   UNL     1     -31.073 -14.121  15.804  0.00  0.00    +0.087 A 
ATOM     21 CL   UNL     1     -31.036 -14.685  17.470  0.00  0.00    -0.080 Cl
ATOM     22  C   UNL     1     -32.056 -13.207  15.387  0.00  0.00    +0.181 A 
BRANCH  16  24
ATOM     23  C   UNL     1     -34.316 -12.310  13.016  0.00  0.00    +0.277 C 
ATOM     24  O   UNL     1     -33.076 -11.905  13.587  0.00  0.00    -0.491 OA
ENDBRANCH  16  24
BRANCH  18  25
ATOM     25  C   UNL     1     -29.100 -14.628  12.673  0.00  0.00    +0.099 C 
ATOM     26  N   UNL     1     -28.294 -15.013  11.938  0.00  0.00    -0.191 NA
ENDBRANCH  18  25
ENDBRANCH  15  22
ENDBRANCH   1  15
TORSDOF 8
ENDMDL
MODEL 5
REMARK VINA RESULT:    -4.016      2.979      6.821
REMARK INTER + INTRA:          -6.847
REMARK INTER:                  -6.377
REMARK INTRA:                  -0.471
REMARK UNBOUND:                -0.953
REMARK  Name = 
REMARK  9 active torsions:
REMARK  status: ('A' for Active; 'I' for Inactive)
REMARK    1  A    between atoms: C_1  and  O_2
REMARK    2  A    between atoms: O_2  and  C_3
REMARK    3  A    between atoms: C_5  and  C_6
REMARK    4  A    between atoms: C_11  and  O_12
REMARK    5  A    between atoms: O_12  and  C_13
REMARK    6  A    between atoms: C_13  and  C_14
REMARK    7  A    between atoms: C_18  and  O_20
REMARK    8  A    between atoms: O_20  and  C_21
REMARK    9  A    between atoms: C_21  and  C_22
REMARK                            x       y       z     vdW  Elec       q    Type
REMARK                         _______ _______ _______ _____ _____    ______ ____
ROOT
ATOM      1  C   UNL     1     -30.050 -10.415  18.108  0.00  0.00    +0.265 C 
ENDROOT
BRANCH   1   2
ATOM      2  C   UNL     1     -29.637 -11.026  19.423  0.00  0.00    -0.007 A 
ATOM      3  C   UNL     1     -29.955 -10.388  20.630  0.00  0.00    +0.007 A 
ATOM      4  C   UNL     1     -29.589 -10.963  21.849  0.00  0.00    +0.004 A 
ATOM      5  C   UNL     1     -28.918 -12.189  21.874  0.00  0.00    +0.045 A 
ATOM      6  C   UNL     1     -28.612 -12.854  20.672  0.00  0.00    +0.122 A 
ATOM      7  C   UNL     1     -28.983 -12.271  19.454  0.00  0.00    +0.052 A 
BRANCH   6   8
ATOM      8  O   UNL     1     -27.946 -14.087  20.642  0.00  0.00    -0.483 OA
BRANCH   8   9
ATOM      9  C   UNL     1     -26.704 -14.347  21.289  0.00  0.00    +0.324 C 
BRANCH   9  10
ATOM     10  C   UNL     1     -25.588 -14.095  20.327  0.00  0.00    +0.248 C 
ATOM     11  N   UNL     1     -25.102 -12.770  20.117  0.00  0.00    -0.327 N 
ATOM     12  O   UNL     1     -25.045 -15.062  19.730  0.00  0.00    -0.272 OA
ATOM     13  H   UNL     1     -24.314 -12.597  19.454  0.00  0.00    +0.145 HD
ATOM     14  H   UNL     1     -25.520 -11.961  20.628  0.00  0.00    +0.145 HD
ENDBRANCH   9  10
ENDBRANCH   8   9
ENDBRANCH   6   8
ENDBRANCH   1   2
BRANCH   1  15
ATOM     15  O   UNL     1     -29.810 -11.307  17.018  0.00  0.00    -0.482 OA
BRANCH  15  22
ATOM     16  C   UNL     1     -31.747 -10.815  15.523  0.00  0.00    +0.164 A 
ATOM     17  C   UNL     1     -32.568 -11.253  14.463  0.00  0.00    +0.068 A 
ATOM     18  C   UNL     1     -32.375 -12.510  13.885  0.00  0.00    +0.057 A 
ATOM     19  C   UNL     1     -31.363 -13.346  14.358  0.00  0.00    +0.042 A 
ATOM     20  C   UNL     1     -30.536 -12.926  15.401  0.00  0.00    +0.087 A 
ATOM     21 CL   UNL     1     -29.262 -14.001  15.961  0.00  0.00    -0.080 Cl
ATOM     22  C   UNL     1     -30.704 -11.659  15.986  0.00  0.00    +0.181 A 
BRANCH  16  24
ATOM     23  C   UNL     1     -33.229  -9.078  16.562  0.00  0.00    +0.277 C 
ATOM     24  O   UNL     1     -31.964  -9.569  16.131  0.00  0.00    -0.491 OA
ENDBRANCH  16  24
BRANCH  18  25
ATOM     25  C   UNL     1     -33.224 -12.948  12.807  0.00  0.00    +0.099 C 
ATOM     26  N   UNL     1     -33.907 -13.299  11.941  0.00  0.00    -0.191 NA
ENDBRANCH  18  25
ENDBRANCH  15  22
ENDBRANCH   1  15
TORSDOF 8
ENDMDL
MODEL 6
REMARK VINA RESULT:    -4.009      3.243      3.891
REMARK INTER + INTRA:          -6.837
REMARK INTER:                  -5.640
REMARK INTRA:                  -1.197
REMARK UNBOUND:                -0.953
REMARK  Name = 
REMARK  9 active torsions:
REMARK  status: ('A' for Active; 'I' for Inactive)
REMARK    1  A    between atoms: C_1  and  O_2
REMARK    2  A    between atoms: O_2  and  C_3
REMARK    3  A    between atoms: C_5  and  C_6
REMARK    4  A    between atoms: C_11  and  O_12
REMARK    5  A    between atoms: O_12  and  C_13
REMARK    6  A    between atoms: C_13  and  C_14
REMARK    7  A    between atoms: C_18  and  O_20
REMARK    8  A    between atoms: O_20  and  C_21
REMARK    9  A    between atoms: C_21  and  C_22
REMARK                            x       y       z     vdW  Elec       q    Type
REMARK                         _______ _______ _______ _____ _____    ______ ____
ROOT
ATOM      1  C   UNL     1     -32.958  -8.838  18.511  0.00  0.00    +0.265 C 
ENDROOT
BRANCH   1   2
ATOM      2  C   UNL     1     -33.282  -9.897  17.489  0.00  0.00    -0.007 A 
ATOM      3  C   UNL     1     -33.804  -9.537  16.238  0.00  0.00    +0.007 A 
ATOM      4  C   UNL     1     -34.086 -10.517  15.284  0.00  0.00    +0.004 A 
ATOM      5  C   UNL     1     -33.833 -11.863  15.562  0.00  0.00    +0.045 A 
ATOM      6  C   UNL     1     -33.287 -12.238  16.804  0.00  0.00    +0.122 A 
ATOM      7  C   UNL     1     -33.006 -11.250  17.755  0.00  0.00    +0.052 A 
BRANCH   6   8
ATOM      8  O   UNL     1     -33.009 -13.574  17.131  0.00  0.00    -0.483 OA
BRANCH   8   9
ATOM      9  C   UNL     1     -31.894 -14.308  16.636  0.00  0.00    +0.324 C 
BRANCH   9  10
ATOM     10  C   UNL     1     -30.772 -14.218  17.619  0.00  0.00    +0.248 C 
ATOM     11  N   UNL     1     -31.042 -14.178  19.020  0.00  0.00    -0.327 N 
ATOM     12  O   UNL     1     -29.580 -14.220  17.212  0.00  0.00    -0.272 OA
ATOM     13  H   UNL     1     -30.257 -14.128  19.706  0.00  0.00    +0.145 HD
ATOM     14  H   UNL     1     -32.023 -14.208  19.375  0.00  0.00    +0.145 HD
ENDBRANCH   9  10
ENDBRANCH   8   9
ENDBRANCH   6   8
ENDBRANCH   1   2
BRANCH   1  15
ATOM     15  O   UNL     1     -31.550  -8.615  18.605  0.00  0.00    -0.482 OA
BRANCH  15  22
ATOM     16  C   UNL     1     -30.283 -10.053  20.204  0.00  0.00    +0.164 A 
ATOM     17  C   UNL     1     -29.277 -11.025  20.383  0.00  0.00    +0.068 A 
ATOM     18  C   UNL     1     -28.534 -11.491  19.295  0.00  0.00    +0.057 A 
ATOM     19  C   UNL     1     -28.785 -10.992  18.017  0.00  0.00    +0.042 A 
ATOM     20  C   UNL     1     -29.782 -10.035  17.819  0.00  0.00    +0.087 A 
ATOM     21 CL   UNL     1     -30.077  -9.439  16.192  0.00  0.00    -0.080 Cl
ATOM     22  C   UNL     1     -30.549  -9.564  18.898  0.00  0.00    +0.181 A 
BRANCH  16  24
ATOM     23  C   UNL     1     -30.644  -8.408  22.062  0.00  0.00    +0.277 C 
ATOM     24  O   UNL     1     -31.003  -9.555  21.300  0.00  0.00    -0.491 OA
ENDBRANCH  16  24
BRANCH  18  25
ATOM     25  C   UNL     1     -27.506 -12.481  19.492  0.00  0.00    +0.099 C 
ATOM     26  N   UNL     1     -26.680 -13.276  19.651  0.00  0.00    -0.191 NA
ENDBRANCH  18  25
ENDBRANCH  15  22
ENDBRANCH   1  15
TORSDOF 8
ENDMDL
MODEL 7
REMARK VINA RESULT:    -3.877      2.663      7.321
REMARK INTER + INTRA:          -6.644
REMARK INTER:                  -5.418
REMARK INTRA:                  -1.226
REMARK UNBOUND:                -0.953
REMARK  Name = 
REMARK  9 active torsions:
REMARK  status: ('A' for Active; 'I' for Inactive)
REMARK    1  A    between atoms: C_1  and  O_2
REMARK    2  A    between atoms: O_2  and  C_3
REMARK    3  A    between atoms: C_5  and  C_6
REMARK    4  A    between atoms: C_11  and  O_12
REMARK    5  A    between atoms: O_12  and  C_13
REMARK    6  A    between atoms: C_13  and  C_14
REMARK    7  A    between atoms: C_18  and  O_20
REMARK    8  A    between atoms: O_20  and  C_21
REMARK    9  A    between atoms: C_21  and  C_22
REMARK                            x       y       z     vdW  Elec       q    Type
REMARK                         _______ _______ _______ _____ _____    ______ ____
ROOT
ATOM      1  C   UNL     1     -28.849 -13.432  17.367  0.00  0.00    +0.265 C 
ENDROOT
BRANCH   1   2
ATOM      2  C   UNL     1     -29.084 -12.588  18.594  0.00  0.00    -0.007 A 
ATOM      3  C   UNL     1     -28.996 -13.158  19.872  0.00  0.00    +0.007 A 
ATOM      4  C   UNL     1     -29.195 -12.372  21.009  0.00  0.00    +0.004 A 
ATOM      5  C   UNL     1     -29.466 -11.007  20.882  0.00  0.00    +0.045 A 
ATOM      6  C   UNL     1     -29.535 -10.415  19.607  0.00  0.00    +0.122 A 
ATOM      7  C   UNL     1     -29.334 -11.209  18.471  0.00  0.00    +0.052 A 
BRANCH   6   8
ATOM      8  O   UNL     1     -29.799  -9.050  19.424  0.00  0.00    -0.483 OA
BRANCH   8   9
ATOM      9  C   UNL     1     -31.018  -8.410  19.789  0.00  0.00    +0.324 C 
BRANCH   9  10
ATOM     10  C   UNL     1     -32.112  -8.891  18.890  0.00  0.00    +0.248 C 
ATOM     11  N   UNL     1     -32.053  -8.644  17.486  0.00  0.00    -0.327 N 
ATOM     12  O   UNL     1     -33.070  -9.554  19.368  0.00  0.00    -0.272 OA
ATOM     13  H   UNL     1     -32.811  -8.992  16.858  0.00  0.00    +0.145 HD
ATOM     14  H   UNL     1     -31.249  -8.123  17.070  0.00  0.00    +0.145 HD
ENDBRANCH   9  10
ENDBRANCH   8   9
ENDBRANCH   6   8
ENDBRANCH   1   2
BRANCH   1  15
ATOM     15  O   UNL     1     -30.067 -14.004  16.885  0.00  0.00    -0.482 OA
BRANCH  15  22
ATOM     16  C   UNL     1     -30.503 -13.697  14.446  0.00  0.00    +0.164 A 
ATOM     17  C   UNL     1     -31.385 -13.232  13.449  0.00  0.00    +0.068 A 
ATOM     18  C   UNL     1     -32.590 -12.614  13.795  0.00  0.00    +0.057 A 
ATOM     19  C   UNL     1     -32.927 -12.451  15.138  0.00  0.00    +0.042 A 
ATOM     20  C   UNL     1     -32.070 -12.912  16.139  0.00  0.00    +0.087 A 
ATOM     21 CL   UNL     1     -32.536 -12.701  17.821  0.00  0.00    -0.080 Cl
ATOM     22  C   UNL     1     -30.861 -13.549  15.812  0.00  0.00    +0.181 A 
BRANCH  16  24
ATOM     23  C   UNL     1     -28.971 -14.861  12.836  0.00  0.00    +0.277 C 
ATOM     24  O   UNL     1     -29.275 -14.284  14.102  0.00  0.00    -0.491 OA
ENDBRANCH  16  24
BRANCH  18  25
ATOM     25  C   UNL     1     -33.479 -12.138  12.767  0.00  0.00    +0.099 C 
ATOM     26  N   UNL     1     -34.194 -11.755  11.941  0.00  0.00    -0.191 NA
ENDBRANCH  18  25
ENDBRANCH  15  22
ENDBRANCH   1  15
TORSDOF 8
ENDMDL
MODEL 8
REMARK VINA RESULT:    -3.867      2.926      7.276
REMARK INTER + INTRA:          -6.629
REMARK INTER:                  -5.326
REMARK INTRA:                  -1.302
REMARK UNBOUND:                -0.953
REMARK  Name = 
REMARK  9 active torsions:
REMARK  status: ('A' for Active; 'I' for Inactive)
REMARK    1  A    between atoms: C_1  and  O_2
REMARK    2  A    between atoms: O_2  and  C_3
REMARK    3  A    between atoms: C_5  and  C_6
REMARK    4  A    between atoms: C_11  and  O_12
REMARK    5  A    between atoms: O_12  and  C_13
REMARK    6  A    between atoms: C_13  and  C_14
REMARK    7  A    between atoms: C_18  and  O_20
REMARK    8  A    between atoms: O_20  and  C_21
REMARK    9  A    between atoms: C_21  and  C_22
REMARK                            x       y       z     vdW  Elec       q    Type
REMARK                         _______ _______ _______ _____ _____    ______ ____
ROOT
ATOM      1  C   UNL     1     -29.217 -13.227  17.168  0.00  0.00    +0.265 C 
ENDROOT
BRANCH   1   2
ATOM      2  C   UNL     1     -29.474 -12.469  18.445  0.00  0.00    -0.007 A 
ATOM      3  C   UNL     1     -29.549 -13.152  19.669  0.00  0.00    +0.007 A 
ATOM      4  C   UNL     1     -29.768 -12.447  20.855  0.00  0.00    +0.004 A 
ATOM      5  C   UNL     1     -29.898 -11.056  20.834  0.00  0.00    +0.045 A 
ATOM      6  C   UNL     1     -29.802 -10.355  19.617  0.00  0.00    +0.122 A 
ATOM      7  C   UNL     1     -29.581 -11.067  18.431  0.00  0.00    +0.052 A 
BRANCH   6   8
ATOM      8  O   UNL     1     -29.918  -8.959  19.541  0.00  0.00    -0.483 OA
BRANCH   8   9
ATOM      9  C   UNL     1     -30.646  -8.161  20.469  0.00  0.00    +0.324 C 
BRANCH   9  10
ATOM     10  C   UNL     1     -32.013  -7.899  19.924  0.00  0.00    +0.248 C 
ATOM     11  N   UNL     1     -32.202  -7.676  18.527  0.00  0.00    -0.327 N 
ATOM     12  O   UNL     1     -33.009  -7.916  20.694  0.00  0.00    -0.272 OA
ATOM     13  H   UNL     1     -33.158  -7.505  18.145  0.00  0.00    +0.145 HD
ATOM     14  H   UNL     1     -31.390  -7.689  17.871  0.00  0.00    +0.145 HD
ENDBRANCH   9  10
ENDBRANCH   8   9
ENDBRANCH   6   8
ENDBRANCH   1   2
BRANCH   1  15
ATOM     15  O   UNL     1     -30.404 -13.861  16.688  0.00  0.00    -0.482 OA
BRANCH  15  22
ATOM     16  C   UNL     1     -32.498 -12.620  16.134  0.00  0.00    +0.164 A 
ATOM     17  C   UNL     1     -33.350 -12.125  15.125  0.00  0.00    +0.068 A 
ATOM     18  C   UNL     1     -33.072 -12.362  13.776  0.00  0.00    +0.057 A 
ATOM     19  C   UNL     1     -31.942 -13.096  13.418  0.00  0.00    +0.042 A 
ATOM     20  C   UNL     1     -31.082 -13.587  14.401  0.00  0.00    +0.087 A 
ATOM     21 CL   UNL     1     -29.660 -14.497  13.910  0.00  0.00    -0.080 Cl
ATOM     22  C   UNL     1     -31.337 -13.348  15.763  0.00  0.00    +0.181 A 
BRANCH  16  24
ATOM     23  C   UNL     1     -33.286 -11.202  18.046  0.00  0.00    +0.277 C 
ATOM     24  O   UNL     1     -32.796 -12.417  17.489  0.00  0.00    -0.491 OA
ENDBRANCH  16  24
BRANCH  18  25
ATOM     25  C   UNL     1     -33.954 -11.855  12.757  0.00  0.00    +0.099 C 
ATOM     26  N   UNL     1     -34.664 -11.448  11.938  0.00  0.00    -0.191 NA
ENDBRANCH  18  25
ENDBRANCH  15  22
ENDBRANCH   1  15
TORSDOF 8
ENDMDL
MODEL 9
REMARK VINA RESULT:    -3.806      3.477      5.517
REMARK INTER + INTRA:          -6.538
REMARK INTER:                  -5.945
REMARK INTRA:                  -0.594
REMARK UNBOUND:                -0.953
REMARK  Name = 
REMARK  9 active torsions:
REMARK  status: ('A' for Active; 'I' for Inactive)
REMARK    1  A    between atoms: C_1  and  O_2
REMARK    2  A    between atoms: O_2  and  C_3
REMARK    3  A    between atoms: C_5  and  C_6
REMARK    4  A    between atoms: C_11  and  O_12
REMARK    5  A    between atoms: O_12  and  C_13
REMARK    6  A    between atoms: C_13  and  C_14
REMARK    7  A    between atoms: C_18  and  O_20
REMARK    8  A    between atoms: O_20  and  C_21
REMARK    9  A    between atoms: C_21  and  C_22
REMARK                            x       y       z     vdW  Elec       q    Type
REMARK                         _______ _______ _______ _____ _____    ______ ____
ROOT
ATOM      1  C   UNL     1     -32.564 -12.003  14.182  0.00  0.00    +0.265 C 
ENDROOT
BRANCH   1   2
ATOM      2  C   UNL     1     -31.467 -12.994  14.478  0.00  0.00    -0.007 A 
ATOM      3  C   UNL     1     -30.988 -13.841  13.468  0.00  0.00    +0.007 A 
ATOM      4  C   UNL     1     -29.958 -14.745  13.737  0.00  0.00    +0.004 A 
ATOM      5  C   UNL     1     -29.386 -14.800  15.010  0.00  0.00    +0.045 A 
ATOM      6  C   UNL     1     -29.839 -13.940  16.028  0.00  0.00    +0.122 A 
ATOM      7  C   UNL     1     -30.871 -13.035  15.751  0.00  0.00    +0.052 A 
BRANCH   6   8
ATOM      8  O   UNL     1     -29.295 -13.951  17.321  0.00  0.00    -0.483 OA
BRANCH   8   9
ATOM      9  C   UNL     1     -28.765 -12.805  17.980  0.00  0.00    +0.324 C 
BRANCH   9  10
ATOM     10  C   UNL     1     -27.925 -13.249  19.135  0.00  0.00    +0.248 C 
ATOM     11  N   UNL     1     -28.423 -14.217  20.059  0.00  0.00    -0.327 N 
ATOM     12  O   UNL     1     -26.757 -12.799  19.270  0.00  0.00    -0.272 OA
ATOM     13  H   UNL     1     -27.831 -14.535  20.858  0.00  0.00    +0.145 HD
ATOM     14  H   UNL     1     -29.378 -14.622  19.943  0.00  0.00    +0.145 HD
ENDBRANCH   9  10
ENDBRANCH   8   9
ENDBRANCH   6   8
ENDBRANCH   1   2
BRANCH   1  15
ATOM     15  O   UNL     1     -33.541 -11.978  15.225  0.00  0.00    -0.482 OA
BRANCH  15  22
ATOM     16  C   UNL     1     -33.627 -10.932  17.489  0.00  0.00    +0.164 A 
ATOM     17  C   UNL     1     -33.941  -9.792  18.257  0.00  0.00    +0.068 A 
ATOM     18  C   UNL     1     -34.482  -8.653  17.654  0.00  0.00    +0.057 A 
ATOM     19  C   UNL     1     -34.717  -8.639  16.279  0.00  0.00    +0.042 A 
ATOM     20  C   UNL     1     -34.404  -9.756  15.502  0.00  0.00    +0.087 A 
ATOM     21 CL   UNL     1     -34.703  -9.696  13.770  0.00  0.00    -0.080 Cl
ATOM     22  C   UNL     1     -33.846 -10.905  16.088  0.00  0.00    +0.181 A 
BRANCH  16  24
ATOM     23  C   UNL     1     -32.380 -12.118  19.315  0.00  0.00    +0.277 C 
ATOM     24  O   UNL     1     -33.120 -12.090  18.099  0.00  0.00    -0.491 OA
ENDBRANCH  16  24
BRANCH  18  25
ATOM     25  C   UNL     1     -34.804  -7.497  18.451  0.00  0.00    +0.099 C 
ATOM     26  N   UNL     1     -35.062  -6.568  19.091  0.00  0.00    -0.191 NA
ENDBRANCH  18  25
ENDBRANCH  15  22
ENDBRANCH   1  15
TORSDOF 8
ENDMDL
