MODEL 1
REMARK VINA RESULT:    -5.189      0.000      0.000
REMARK INTER + INTRA:          -8.262
REMARK INTER:                  -7.161
REMARK INTRA:                  -1.101
REMARK UNBOUND:                -1.101
REMARK  Name = 
REMARK  8 active torsions:
REMARK  status: ('A' for Active; 'I' for Inactive)
REMARK    1  A    between atoms: C_1  and  C_2
REMARK    2  A    between atoms: C_2  and  C_4
REMARK    3  A    between atoms: C_7  and  N_10
REMARK    4  A    between atoms: C_11  and  C_13
REMARK    5  A    between atoms: C_13  and  C_14
REMARK    6  A    between atoms: C_14  and  C_15
REMARK    7  A    between atoms: C_14  and  C_18
REMARK    8  A    between atoms: C_15  and  O_17
REMARK                            x       y       z     vdW  Elec       q    Type
REMARK                         _______ _______ _______ _____ _____    ______ ____
ROOT
ATOM      1  N   UNL     1     -31.223 -12.166  18.863  0.00  0.00    -0.285 N 
ATOM      2  C   UNL     1     -31.969 -12.918  17.893  0.00  0.00    +0.218 C 
ATOM      3  O   UNL     1     -31.632 -14.097  17.598  0.00  0.00    -0.275 OA
ATOM      4  H   UNL     1     -31.688 -11.343  19.307  0.00  0.00    +0.155 HD
ENDROOT
BRANCH   1   8
ATOM      5  C   UNL     1     -27.294 -13.251  20.119  0.00  0.00    +0.017 A 
ATOM      6  C   UNL     1     -28.415 -13.637  20.877  0.00  0.00    +0.013 A 
ATOM      7  C   UNL     1     -29.706 -13.282  20.475  0.00  0.00    +0.024 A 
ATOM      8  C   UNL     1     -29.904 -12.520  19.312  0.00  0.00    +0.033 A 
ATOM      9  C   UNL     1     -28.794 -12.154  18.541  0.00  0.00    +0.024 A 
ATOM     10  C   UNL     1     -27.502 -12.508  18.941  0.00  0.00    +0.013 A 
BRANCH   5  12
ATOM     11  C   UNL     1     -25.678 -14.859  21.395  0.00  0.00    +0.091 C 
ATOM     12  C   UNL     1     -25.927 -13.637  20.561  0.00  0.00    +0.160 C 
ATOM     13  O   UNL     1     -24.938 -12.927  20.231  0.00  0.00    -0.292 OA
ENDBRANCH   5  12
ENDBRANCH   1   8
BRANCH   2  14
ATOM     14  C   UNL     1     -33.157 -12.300  17.212  0.00  0.00    +0.115 C 
BRANCH  14  15
ATOM     15  C   UNL     1     -32.722 -11.204  16.217  0.00  0.00    +0.136 C 
BRANCH  15  16
ATOM     16  C   UNL     1     -32.927 -11.649  14.782  0.00  0.00    -0.033 A 
ATOM     17  C   UNL     1     -34.191 -11.514  14.177  0.00  0.00    +0.004 A 
ATOM     18  C   UNL     1     -34.392 -11.925  12.856  0.00  0.00    +0.000 A 
ATOM     19  C   UNL     1     -33.339 -12.477  12.125  0.00  0.00    +0.000 A 
ATOM     20  C   UNL     1     -32.080 -12.621  12.714  0.00  0.00    +0.000 A 
ATOM     21  C   UNL     1     -31.873 -12.211  14.034  0.00  0.00    +0.004 A 
ENDBRANCH  15  16
BRANCH  15  22
ATOM     22  C   UNL     1     -33.429  -9.897  16.465  0.00  0.00    +0.313 C 
ATOM     23  O   UNL     1     -34.485  -9.857  17.154  0.00  0.00    -0.250 OA
BRANCH  22  24
ATOM     24  O   UNL     1     -32.923  -8.725  15.912  0.00  0.00    -0.480 OA
ATOM     25  H   UNL     1     -33.242  -7.819  16.233  0.00  0.00    +0.295 HD
ENDBRANCH  22  24
ENDBRANCH  15  22
ENDBRANCH  14  15
ENDBRANCH   2  14
TORSDOF 7
ENDMDL
MODEL 2
REMARK VINA RESULT:    -5.039      1.586      2.358
REMARK INTER + INTRA:          -8.055
REMARK INTER:                  -7.258
REMARK INTRA:                  -0.797
REMARK UNBOUND:                -1.101
REMARK  Name = 
REMARK  8 active torsions:
REMARK  status: ('A' for Active; 'I' for Inactive)
REMARK    1  A    between atoms: C_1  and  C_2
REMARK    2  A    between atoms: C_2  and  C_4
REMARK    3  A    between atoms: C_7  and  N_10
REMARK    4  A    between atoms: C_11  and  C_13
REMARK    5  A    between atoms: C_13  and  C_14
REMARK    6  A    between atoms: C_14  and  C_15
REMARK    7  A    between atoms: C_14  and  C_18
REMARK    8  A    between atoms: C_15  and  O_17
REMARK                            x       y       z     vdW  Elec       q    Type
REMARK                         _______ _______ _______ _____ _____    ______ ____
ROOT
ATOM      1  N   UNL     1     -29.880 -11.285  16.838  0.00  0.00    -0.285 N 
ATOM      2  C   UNL     1     -30.895 -10.273  16.934  0.00  0.00    +0.218 C 
ATOM      3  O   UNL     1     -31.159  -9.732  18.042  0.00  0.00    -0.275 OA
ATOM      4  H   UNL     1     -29.475 -11.482  15.895  0.00  0.00    +0.155 HD
ENDROOT
BRANCH   1   8
ATOM      5  C   UNL     1     -28.204 -13.400  20.140  0.00  0.00    +0.017 A 
ATOM      6  C   UNL     1     -29.551 -13.593  19.782  0.00  0.00    +0.013 A 
ATOM      7  C   UNL     1     -30.111 -12.900  18.704  0.00  0.00    +0.024 A 
ATOM      8  C   UNL     1     -29.337 -11.988  17.968  0.00  0.00    +0.033 A 
ATOM      9  C   UNL     1     -27.990 -11.811  18.304  0.00  0.00    +0.024 A 
ATOM     10  C   UNL     1     -27.429 -12.502  19.382  0.00  0.00    +0.013 A 
BRANCH   5  12
ATOM     11  C   UNL     1     -26.151 -14.152  21.569  0.00  0.00    +0.091 C 
ATOM     12  C   UNL     1     -27.625 -14.145  21.290  0.00  0.00    +0.160 C 
ATOM     13  O   UNL     1     -28.383 -14.793  22.062  0.00  0.00    -0.292 OA
ENDBRANCH   5  12
ENDBRANCH   1   8
BRANCH   2  14
ATOM     14  C   UNL     1     -31.662  -9.856  15.711  0.00  0.00    +0.115 C 
BRANCH  14  15
ATOM     15  C   UNL     1     -32.960 -10.677  15.560  0.00  0.00    +0.136 C 
BRANCH  15  16
ATOM     16  C   UNL     1     -32.923 -11.544  14.316  0.00  0.00    -0.033 A 
ATOM     17  C   UNL     1     -31.763 -12.276  14.003  0.00  0.00    +0.004 A 
ATOM     18  C   UNL     1     -31.717 -13.075  12.856  0.00  0.00    +0.000 A 
ATOM     19  C   UNL     1     -32.824 -13.150  12.009  0.00  0.00    +0.000 A 
ATOM     20  C   UNL     1     -33.981 -12.426  12.306  0.00  0.00    +0.000 A 
ATOM     21  C   UNL     1     -34.033 -11.626  13.451  0.00  0.00    +0.004 A 
ENDBRANCH  15  16
BRANCH  15  22
ATOM     22  C   UNL     1     -33.246 -11.520  16.776  0.00  0.00    +0.313 C 
ATOM     23  O   UNL     1     -33.059 -12.767  16.753  0.00  0.00    -0.250 OA
BRANCH  22  24
ATOM     24  O   UNL     1     -33.738 -10.918  17.930  0.00  0.00    -0.480 OA
ATOM     25  H   UNL     1     -33.949  -9.928  17.949  0.00  0.00    +0.295 HD
ENDBRANCH  22  24
ENDBRANCH  15  22
ENDBRANCH  14  15
ENDBRANCH   2  14
TORSDOF 7
ENDMDL
MODEL 3
REMARK VINA RESULT:    -4.720      2.472      7.809
REMARK INTER + INTRA:          -7.614
REMARK INTER:                  -6.299
REMARK INTRA:                  -1.315
REMARK UNBOUND:                -1.101
REMARK  Name = 
REMARK  8 active torsions:
REMARK  status: ('A' for Active; 'I' for Inactive)
REMARK    1  A    between atoms: C_1  and  C_2
REMARK    2  A    between atoms: C_2  and  C_4
REMARK    3  A    between atoms: C_7  and  N_10
REMARK    4  A    between atoms: C_11  and  C_13
REMARK    5  A    between atoms: C_13  and  C_14
REMARK    6  A    between atoms: C_14  and  C_15
REMARK    7  A    between atoms: C_14  and  C_18
REMARK    8  A    between atoms: C_15  and  O_17
REMARK                            x       y       z     vdW  Elec       q    Type
REMARK                         _______ _______ _______ _____ _____    ______ ____
ROOT
ATOM      1  N   UNL     1     -29.990 -12.787  16.433  0.00  0.00    -0.285 N 
ATOM      2  C   UNL     1     -29.998 -13.712  17.532  0.00  0.00    +0.218 C 
ATOM      3  O   UNL     1     -30.825 -14.663  17.564  0.00  0.00    -0.275 OA
ATOM      4  H   UNL     1     -29.126 -12.221  16.277  0.00  0.00    +0.155 HD
ENDROOT
BRANCH   1   8
ATOM      5  C   UNL     1     -33.131 -12.353  13.582  0.00  0.00    +0.017 A 
ATOM      6  C   UNL     1     -33.154 -11.619  14.782  0.00  0.00    +0.013 A 
ATOM      7  C   UNL     1     -32.131 -11.758  15.724  0.00  0.00    +0.024 A 
ATOM      8  C   UNL     1     -31.068 -12.647  15.493  0.00  0.00    +0.033 A 
ATOM      9  C   UNL     1     -31.028 -13.362  14.290  0.00  0.00    +0.024 A 
ATOM     10  C   UNL     1     -32.050 -13.225  13.346  0.00  0.00    +0.013 A 
BRANCH   5  12
ATOM     11  C   UNL     1     -34.875 -10.866  12.329  0.00  0.00    +0.091 C 
ATOM     12  C   UNL     1     -34.228 -12.194  12.590  0.00  0.00    +0.160 C 
ATOM     13  O   UNL     1     -34.636 -13.196  11.940  0.00  0.00    -0.292 OA
ENDBRANCH   5  12
ENDBRANCH   1   8
BRANCH   2  14
ATOM     14  C   UNL     1     -29.024 -13.546  18.663  0.00  0.00    +0.115 C 
BRANCH  14  15
ATOM     15  C   UNL     1     -28.373 -12.148  18.640  0.00  0.00    +0.136 C 
BRANCH  15  16
ATOM     16  C   UNL     1     -29.145 -11.165  19.499  0.00  0.00    -0.033 A 
ATOM     17  C   UNL     1     -29.228 -11.360  20.890  0.00  0.00    +0.004 A 
ATOM     18  C   UNL     1     -29.941 -10.463  21.691  0.00  0.00    +0.000 A 
ATOM     19  C   UNL     1     -30.581  -9.364  21.114  0.00  0.00    +0.000 A 
ATOM     20  C   UNL     1     -30.510  -9.160  19.734  0.00  0.00    +0.000 A 
ATOM     21  C   UNL     1     -29.798 -10.054  18.929  0.00  0.00    +0.004 A 
ENDBRANCH  15  16
BRANCH  15  22
ATOM     22  C   UNL     1     -26.927 -12.186  19.061  0.00  0.00    +0.313 C 
ATOM     23  O   UNL     1     -26.502 -13.097  19.823  0.00  0.00    -0.250 OA
BRANCH  22  24
ATOM     24  O   UNL     1     -26.055 -11.195  18.621  0.00  0.00    -0.480 OA
ATOM     25  H   UNL     1     -26.094 -10.260  19.008  0.00  0.00    +0.295 HD
ENDBRANCH  22  24
ENDBRANCH  15  22
ENDBRANCH  14  15
ENDBRANCH   2  14
TORSDOF 7
ENDMDL
MODEL 4
REMARK VINA RESULT:    -4.475      2.803      6.137
REMARK INTER + INTRA:          -7.276
REMARK INTER:                  -6.098
REMARK INTRA:                  -1.178
REMARK UNBOUND:                -1.101
REMARK  Name = 
REMARK  8 active torsions:
REMARK  status: ('A' for Active; 'I' for Inactive)
REMARK    1  A    between atoms: C_1  and  C_2
REMARK    2  A    between atoms: C_2  and  C_4
REMARK    3  A    between atoms: C_7  and  N_10
REMARK    4  A    between atoms: C_11  and  C_13
REMARK    5  A    between atoms: C_13  and  C_14
REMARK    6  A    between atoms: C_14  and  C_15
REMARK    7  A    between atoms: C_14  and  C_18
REMARK    8  A    between atoms: C_15  and  O_17
REMARK                            x       y       z     vdW  Elec       q    Type
REMARK                         _______ _______ _______ _____ _____    ______ ____
ROOT
ATOM      1  N   UNL     1     -31.828 -12.734  17.950  0.00  0.00    -0.285 N 
ATOM      2  C   UNL     1     -32.178 -11.360  18.176  0.00  0.00    +0.218 C 
ATOM      3  O   UNL     1     -32.308 -10.563  17.207  0.00  0.00    -0.275 OA
ATOM      4  H   UNL     1     -32.030 -13.422  18.710  0.00  0.00    +0.155 HD
ENDROOT
BRANCH   1   8
ATOM      5  C   UNL     1     -30.139 -14.182  14.310  0.00  0.00    +0.017 A 
ATOM      6  C   UNL     1     -31.259 -13.331  14.286  0.00  0.00    +0.013 A 
ATOM      7  C   UNL     1     -31.822 -12.855  15.474  0.00  0.00    +0.024 A 
ATOM      8  C   UNL     1     -31.285 -13.232  16.715  0.00  0.00    +0.033 A 
ATOM      9  C   UNL     1     -30.156 -14.060  16.745  0.00  0.00    +0.024 A 
ATOM     10  C   UNL     1     -29.592 -14.537  15.558  0.00  0.00    +0.013 A 
BRANCH   5  12
ATOM     11  C   UNL     1     -28.071 -14.745  12.819  0.00  0.00    +0.091 C 
ATOM     12  C   UNL     1     -29.553 -14.680  13.037  0.00  0.00    +0.160 C 
ATOM     13  O   UNL     1     -30.312 -15.062  12.105  0.00  0.00    -0.292 OA
ENDBRANCH   5  12
ENDBRANCH   1   8
BRANCH   2  14
ATOM     14  C   UNL     1     -32.385 -10.856  19.576  0.00  0.00    +0.115 C 
BRANCH  14  15
ATOM     15  C   UNL     1     -31.118 -10.155  20.109  0.00  0.00    +0.136 C 
BRANCH  15  16
ATOM     16  C   UNL     1     -29.865 -10.926  19.746  0.00  0.00    -0.033 A 
ATOM     17  C   UNL     1     -29.465 -12.027  20.527  0.00  0.00    +0.004 A 
ATOM     18  C   UNL     1     -28.308 -12.742  20.204  0.00  0.00    +0.000 A 
ATOM     19  C   UNL     1     -27.536 -12.368  19.102  0.00  0.00    +0.000 A 
ATOM     20  C   UNL     1     -27.919 -11.275  18.321  0.00  0.00    +0.000 A 
ATOM     21  C   UNL     1     -29.075 -10.557  18.639  0.00  0.00    +0.004 A 
ENDBRANCH  15  16
BRANCH  15  22
ATOM     22  C   UNL     1     -31.012  -8.730  19.629  0.00  0.00    +0.313 C 
ATOM     23  O   UNL     1     -30.230  -7.918  20.193  0.00  0.00    -0.250 OA
BRANCH  22  24
ATOM     24  O   UNL     1     -31.799  -8.302  18.564  0.00  0.00    -0.480 OA
ATOM     25  H   UNL     1     -32.797  -8.476  18.554  0.00  0.00    +0.295 HD
ENDBRANCH  22  24
ENDBRANCH  15  22
ENDBRANCH  14  15
ENDBRANCH   2  14
TORSDOF 7
ENDMDL
MODEL 5
REMARK VINA RESULT:    -4.419      2.273      7.395
REMARK INTER + INTRA:          -7.200
REMARK INTER:                  -6.124
REMARK INTRA:                  -1.076
REMARK UNBOUND:                -1.101
REMARK  Name = 
REMARK  8 active torsions:
REMARK  status: ('A' for Active; 'I' for Inactive)
REMARK    1  A    between atoms: C_1  and  C_2
REMARK    2  A    between atoms: C_2  and  C_4
REMARK    3  A    between atoms: C_7  and  N_10
REMARK    4  A    between atoms: C_11  and  C_13
REMARK    5  A    between atoms: C_13  and  C_14
REMARK    6  A    between atoms: C_14  and  C_15
REMARK    7  A    between atoms: C_14  and  C_18
REMARK    8  A    between atoms: C_15  and  O_17
REMARK                            x       y       z     vdW  Elec       q    Type
REMARK                         _______ _______ _______ _____ _____    ______ ____
ROOT
ATOM      1  N   UNL     1     -29.544 -10.761  17.399  0.00  0.00    -0.285 N 
ATOM      2  C   UNL     1     -28.902 -11.909  17.976  0.00  0.00    +0.218 C 
ATOM      3  O   UNL     1     -29.112 -13.063  17.513  0.00  0.00    -0.275 OA
ATOM      4  H   UNL     1     -29.126  -9.822  17.586  0.00  0.00    +0.155 HD
ENDROOT
BRANCH   1   8
ATOM      5  C   UNL     1     -32.965 -10.964  14.860  0.00  0.00    +0.017 A 
ATOM      6  C   UNL     1     -31.991 -11.979  14.825  0.00  0.00    +0.013 A 
ATOM      7  C   UNL     1     -30.864 -11.919  15.650  0.00  0.00    +0.024 A 
ATOM      8  C   UNL     1     -30.679 -10.833  16.520  0.00  0.00    +0.033 A 
ATOM      9  C   UNL     1     -31.657  -9.832  16.578  0.00  0.00    +0.024 A 
ATOM     10  C   UNL     1     -32.784  -9.890  15.753  0.00  0.00    +0.013 A 
BRANCH   5  12
ATOM     11  C   UNL     1     -34.327 -12.142  12.968  0.00  0.00    +0.091 C 
ATOM     12  C   UNL     1     -34.157 -11.043  13.975  0.00  0.00    +0.160 C 
ATOM     13  O   UNL     1     -35.062 -10.168  14.063  0.00  0.00    -0.292 OA
ENDBRANCH   5  12
ENDBRANCH   1   8
BRANCH   2  14
ATOM     14  C   UNL     1     -27.979 -11.746  19.150  0.00  0.00    +0.115 C 
BRANCH  14  15
ATOM     15  C   UNL     1     -28.710 -12.030  20.479  0.00  0.00    +0.136 C 
BRANCH  15  16
ATOM     16  C   UNL     1     -30.148 -11.553  20.431  0.00  0.00    -0.033 A 
ATOM     17  C   UNL     1     -30.450 -10.200  20.680  0.00  0.00    +0.004 A 
ATOM     18  C   UNL     1     -31.774  -9.751  20.644  0.00  0.00    +0.000 A 
ATOM     19  C   UNL     1     -32.810 -10.644  20.363  0.00  0.00    +0.000 A 
ATOM     20  C   UNL     1     -32.525 -11.989  20.118  0.00  0.00    +0.000 A 
ATOM     21  C   UNL     1     -31.204 -12.444  20.152  0.00  0.00    +0.004 A 
ENDBRANCH  15  16
BRANCH  15  22
ATOM     22  C   UNL     1     -28.655 -13.487  20.858  0.00  0.00    +0.313 C 
ATOM     23  O   UNL     1     -28.772 -13.843  22.062  0.00  0.00    -0.250 OA
BRANCH  22  24
ATOM     24  O   UNL     1     -28.454 -14.448  19.872  0.00  0.00    -0.480 OA
ATOM     25  H   UNL     1     -27.916 -15.284  20.064  0.00  0.00    +0.295 HD
ENDBRANCH  22  24
ENDBRANCH  15  22
ENDBRANCH  14  15
ENDBRANCH   2  14
TORSDOF 7
ENDMDL
MODEL 6
REMARK VINA RESULT:    -4.164      3.494      5.267
REMARK INTER + INTRA:          -6.848
REMARK INTER:                  -6.005
REMARK INTRA:                  -0.843
REMARK UNBOUND:                -1.101
REMARK  Name = 
REMARK  8 active torsions:
REMARK  status: ('A' for Active; 'I' for Inactive)
REMARK    1  A    between atoms: C_1  and  C_2
REMARK    2  A    between atoms: C_2  and  C_4
REMARK    3  A    between atoms: C_7  and  N_10
REMARK    4  A    between atoms: C_11  and  C_13
REMARK    5  A    between atoms: C_13  and  C_14
REMARK    6  A    between atoms: C_14  and  C_15
REMARK    7  A    between atoms: C_14  and  C_18
REMARK    8  A    between atoms: C_15  and  O_17
REMARK                            x       y       z     vdW  Elec       q    Type
REMARK                         _______ _______ _______ _____ _____    ______ ____
ROOT
ATOM      1  N   UNL     1     -32.094 -11.250  17.672  0.00  0.00    -0.285 N 
ATOM      2  C   UNL     1     -32.331 -12.582  18.154  0.00  0.00    +0.218 C 
ATOM      3  O   UNL     1     -32.547 -12.792  19.379  0.00  0.00    -0.275 OA
ATOM      4  H   UNL     1     -32.229 -11.068  16.652  0.00  0.00    +0.155 HD
ENDROOT
BRANCH   1   8
ATOM      5  C   UNL     1     -31.099  -7.897  20.113  0.00  0.00    +0.017 A 
ATOM      6  C   UNL     1     -30.252  -9.019  20.067  0.00  0.00    +0.013 A 
ATOM      7  C   UNL     1     -30.573 -10.125  19.273  0.00  0.00    +0.024 A 
ATOM      8  C   UNL     1     -31.756 -10.137  18.518  0.00  0.00    +0.033 A 
ATOM      9  C   UNL     1     -32.591  -9.013  18.540  0.00  0.00    +0.024 A 
ATOM     10  C   UNL     1     -32.273  -7.907  19.334  0.00  0.00    +0.013 A 
BRANCH   5  12
ATOM     11  C   UNL     1     -31.713  -6.137  21.943  0.00  0.00    +0.091 C 
ATOM     12  C   UNL     1     -30.744  -6.729  20.963  0.00  0.00    +0.160 C 
ATOM     13  O   UNL     1     -29.598  -6.211  20.868  0.00  0.00    -0.292 OA
ENDBRANCH   5  12
ENDBRANCH   1   8
BRANCH   2  14
ATOM     14  C   UNL     1     -32.313 -13.742  17.201  0.00  0.00    +0.115 C 
BRANCH  14  15
ATOM     15  C   UNL     1     -30.885 -14.297  17.024  0.00  0.00    +0.136 C 
BRANCH  15  16
ATOM     16  C   UNL     1     -30.474 -14.310  15.564  0.00  0.00    -0.033 A 
ATOM     17  C   UNL     1     -31.216 -13.579  14.617  0.00  0.00    +0.004 A 
ATOM     18  C   UNL     1     -30.850 -13.587  13.268  0.00  0.00    +0.000 A 
ATOM     19  C   UNL     1     -29.742 -14.326  12.848  0.00  0.00    +0.000 A 
ATOM     20  C   UNL     1     -28.999 -15.060  13.775  0.00  0.00    +0.000 A 
ATOM     21  C   UNL     1     -29.361 -15.054  15.125  0.00  0.00    +0.004 A 
ENDBRANCH  15  16
BRANCH  15  22
ATOM     22  C   UNL     1     -29.873 -13.538  17.844  0.00  0.00    +0.313 C 
ATOM     23  O   UNL     1     -29.235 -12.572  17.345  0.00  0.00    -0.250 OA
BRANCH  22  24
ATOM     24  O   UNL     1     -29.628 -13.921  19.159  0.00  0.00    -0.480 OA
ATOM     25  H   UNL     1     -28.688 -13.912  19.536  0.00  0.00    +0.295 HD
ENDBRANCH  22  24
ENDBRANCH  15  22
ENDBRANCH  14  15
ENDBRANCH   2  14
TORSDOF 7
ENDMDL
MODEL 7
REMARK VINA RESULT:    -3.908      2.362      3.211
REMARK INTER + INTRA:          -6.494
REMARK INTER:                  -6.361
REMARK INTRA:                  -0.133
REMARK UNBOUND:                -1.101
REMARK  Name = 
REMARK  8 active torsions:
REMARK  status: ('A' for Active; 'I' for Inactive)
REMARK    1  A    between atoms: C_1  and  C_2
REMARK    2  A    between atoms: C_2  and  C_4
REMARK    3  A    between atoms: C_7  and  N_10
REMARK    4  A    between atoms: C_11  and  C_13
REMARK    5  A    between atoms: C_13  and  C_14
REMARK    6  A    between atoms: C_14  and  C_15
REMARK    7  A    between atoms: C_14  and  C_18
REMARK    8  A    between atoms: C_15  and  O_17
REMARK                            x       y       z     vdW  Elec       q    Type
REMARK                         _______ _______ _______ _____ _____    ______ ____
ROOT
ATOM      1  N   UNL     1     -30.294 -10.103  18.791  0.00  0.00    -0.285 N 
ATOM      2  C   UNL     1     -31.022  -9.100  19.516  0.00  0.00    +0.218 C 
ATOM      3  O   UNL     1     -30.763  -8.868  20.728  0.00  0.00    -0.275 OA
ATOM      4  H   UNL     1     -30.307 -10.059  17.747  0.00  0.00    +0.155 HD
ENDROOT
BRANCH   1   8
ATOM      5  C   UNL     1     -27.902 -13.157  20.564  0.00  0.00    +0.017 A 
ATOM      6  C   UNL     1     -29.113 -12.764  21.163  0.00  0.00    +0.013 A 
ATOM      7  C   UNL     1     -29.901 -11.761  20.592  0.00  0.00    +0.024 A 
ATOM      8  C   UNL     1     -29.488 -11.118  19.414  0.00  0.00    +0.033 A 
ATOM      9  C   UNL     1     -28.296 -11.522  18.799  0.00  0.00    +0.024 A 
ATOM     10  C   UNL     1     -27.506 -12.525  19.370  0.00  0.00    +0.013 A 
BRANCH   5  12
ATOM     11  C   UNL     1     -25.605 -14.348  20.918  0.00  0.00    +0.091 C 
ATOM     12  C   UNL     1     -27.076 -14.227  21.185  0.00  0.00    +0.160 C 
ATOM     13  O   UNL     1     -27.613 -15.062  21.963  0.00  0.00    -0.292 OA
ENDBRANCH   5  12
ENDBRANCH   1   8
BRANCH   2  14
ATOM     14  C   UNL     1     -32.113  -8.322  18.835  0.00  0.00    +0.115 C 
BRANCH  14  15
ATOM     15  C   UNL     1     -33.360  -9.199  18.601  0.00  0.00    +0.136 C 
BRANCH  15  16
ATOM     16  C   UNL     1     -33.257  -9.970  17.299  0.00  0.00    -0.033 A 
ATOM     17  C   UNL     1     -32.242  -9.659  16.375  0.00  0.00    +0.004 A 
ATOM     18  C   UNL     1     -32.141 -10.360  15.170  0.00  0.00    +0.000 A 
ATOM     19  C   UNL     1     -33.050 -11.377  14.872  0.00  0.00    +0.000 A 
ATOM     20  C   UNL     1     -34.064 -11.695  15.778  0.00  0.00    +0.000 A 
ATOM     21  C   UNL     1     -34.170 -10.997  16.984  0.00  0.00    +0.004 A 
ENDBRANCH  15  16
BRANCH  15  22
ATOM     22  C   UNL     1     -33.618 -10.142  19.748  0.00  0.00    +0.313 C 
ATOM     23  O   UNL     1     -32.969 -11.218  19.853  0.00  0.00    -0.250 OA
BRANCH  22  24
ATOM     24  O   UNL     1     -34.594  -9.830  20.689  0.00  0.00    -0.480 OA
ATOM     25  H   UNL     1     -35.141 -10.559  21.130  0.00  0.00    +0.295 HD
ENDBRANCH  22  24
ENDBRANCH  15  22
ENDBRANCH  14  15
ENDBRANCH   2  14
TORSDOF 7
ENDMDL
