MODEL 1
REMARK VINA RESULT:    -4.557      0.000      0.000
REMARK INTER + INTRA:          -9.391
REMARK INTER:                  -6.822
REMARK INTRA:                  -2.569
REMARK UNBOUND:                -2.569
REMARK  Name = 
REMARK  10 active torsions:
REMARK  status: ('A' for Active; 'I' for Inactive)
REMARK    1  A    between atoms: C_1  and  O_2
REMARK    2  A    between atoms: O_2  and  C_3
REMARK    3  A    between atoms: C_8  and  O_9
REMARK    4  A    between atoms: O_9  and  C_10
REMARK    5  A    between atoms: C_10  and  C_11
REMARK    6  A    between atoms: N_13  and  C_14
REMARK    7  A    between atoms: C_14  and  C_15
REMARK    8  A    between atoms: C_14  and  C_19
REMARK    9  A    between atoms: C_15  and  C_16
REMARK   10  A    between atoms: C_16  and  O_18
REMARK                            x       y       z     vdW  Elec       q    Type
REMARK                         _______ _______ _______ _____ _____    ______ ____
ROOT
ATOM      1  C   UNL     1     -31.061 -10.600  17.027  0.00  0.00    +0.251 C 
ATOM      2  O   UNL     1     -32.174 -10.074  17.301  0.00  0.00    -0.272 OA
ATOM      3  N   UNL     1     -31.000 -11.921  16.471  0.00  0.00    -0.305 N 
ATOM      4  H   UNL     1     -30.058 -12.332  16.273  0.00  0.00    +0.149 HD
ENDROOT
BRANCH   1   5
ATOM      5  C   UNL     1     -29.800  -9.856  17.324  0.00  0.00    +0.324 C 
BRANCH   5   6
ATOM      6  O   UNL     1     -29.509  -9.968  18.713  0.00  0.00    -0.479 OA
BRANCH   6  12
ATOM      7  C   UNL     1     -29.572 -11.608  20.480  0.00  0.00    +0.162 A 
ATOM      8  C   UNL     1     -29.038 -12.750  21.111  0.00  0.00    +0.049 A 
ATOM      9  C   UNL     1     -27.904 -13.377  20.592  0.00  0.00    +0.004 A 
ATOM     10  C   UNL     1     -27.291 -12.876  19.443  0.00  0.00    +0.004 A 
ATOM     11  C   UNL     1     -27.811 -11.746  18.808  0.00  0.00    +0.049 A 
ATOM     12  C   UNL     1     -28.955 -11.104  19.322  0.00  0.00    +0.163 A 
BRANCH   7  14
ATOM     13  C   UNL     1     -32.048 -11.398  20.780  0.00  0.00    +0.277 C 
ATOM     14  O   UNL     1     -30.710 -10.948  20.971  0.00  0.00    -0.491 OA
ENDBRANCH   7  14
ENDBRANCH   6  12
ENDBRANCH   5   6
ENDBRANCH   1   5
BRANCH   3  15
ATOM     15  C   UNL     1     -32.209 -12.695  16.167  0.00  0.00    +0.114 C 
BRANCH  15  16
ATOM     16  C   UNL     1     -32.509 -12.627  14.683  0.00  0.00    -0.027 A 
ATOM     17  C   UNL     1     -33.665 -11.972  14.225  0.00  0.00    +0.005 A 
ATOM     18  C   UNL     1     -33.955 -11.921  12.858  0.00  0.00    +0.000 A 
ATOM     19  C   UNL     1     -33.098 -12.530  11.938  0.00  0.00    +0.000 A 
ATOM     20  C   UNL     1     -31.950 -13.192  12.382  0.00  0.00    +0.000 A 
ATOM     21  C   UNL     1     -31.656 -13.243  13.748  0.00  0.00    +0.005 A 
ENDBRANCH  15  16
BRANCH  15  22
ATOM     22  C   UNL     1     -32.036 -14.155  16.631  0.00  0.00    +0.147 C 
BRANCH  22  23
ATOM     23  C   UNL     1     -30.870 -14.304  17.559  0.00  0.00    +0.307 C 
ATOM     24  O   UNL     1     -29.693 -14.235  17.112  0.00  0.00    -0.251 OA
BRANCH  23  25
ATOM     25  O   UNL     1     -31.086 -14.478  18.923  0.00  0.00    -0.481 OA
ATOM     26  H   UNL     1     -31.948 -14.168  19.356  0.00  0.00    +0.295 HD
ENDBRANCH  23  25
ENDBRANCH  22  23
ENDBRANCH  15  22
ENDBRANCH   3  15
TORSDOF 9
ENDMDL
MODEL 2
REMARK VINA RESULT:    -4.553      1.896      3.469
REMARK INTER + INTRA:          -9.384
REMARK INTER:                  -6.908
REMARK INTRA:                  -2.476
REMARK UNBOUND:                -2.569
REMARK  Name = 
REMARK  10 active torsions:
REMARK  status: ('A' for Active; 'I' for Inactive)
REMARK    1  A    between atoms: C_1  and  O_2
REMARK    2  A    between atoms: O_2  and  C_3
REMARK    3  A    between atoms: C_8  and  O_9
REMARK    4  A    between atoms: O_9  and  C_10
REMARK    5  A    between atoms: C_10  and  C_11
REMARK    6  A    between atoms: N_13  and  C_14
REMARK    7  A    between atoms: C_14  and  C_15
REMARK    8  A    between atoms: C_14  and  C_19
REMARK    9  A    between atoms: C_15  and  C_16
REMARK   10  A    between atoms: C_16  and  O_18
REMARK                            x       y       z     vdW  Elec       q    Type
REMARK                         _______ _______ _______ _____ _____    ______ ____
ROOT
ATOM      1  C   UNL     1     -29.105 -13.171  17.953  0.00  0.00    +0.251 C 
ATOM      2  O   UNL     1     -29.861 -13.681  18.825  0.00  0.00    -0.272 OA
ATOM      3  N   UNL     1     -29.363 -13.379  16.558  0.00  0.00    -0.305 N 
ATOM      4  H   UNL     1     -28.704 -12.955  15.864  0.00  0.00    +0.149 HD
ENDROOT
BRANCH   1   5
ATOM      5  C   UNL     1     -27.913 -12.379  18.383  0.00  0.00    +0.324 C 
BRANCH   5   6
ATOM      6  O   UNL     1     -28.134 -11.004  18.083  0.00  0.00    -0.479 OA
BRANCH   6  12
ATOM      7  C   UNL     1     -29.950 -10.127  19.405  0.00  0.00    +0.162 A 
ATOM      8  C   UNL     1     -31.202  -9.485  19.494  0.00  0.00    +0.049 A 
ATOM      9  C   UNL     1     -31.877  -9.092  18.337  0.00  0.00    +0.004 A 
ATOM     10  C   UNL     1     -31.314  -9.331  17.083  0.00  0.00    +0.004 A 
ATOM     11  C   UNL     1     -30.074  -9.965  16.981  0.00  0.00    +0.049 A 
ATOM     12  C   UNL     1     -29.383 -10.367  18.142  0.00  0.00    +0.163 A 
BRANCH   7  14
ATOM     13  C   UNL     1     -29.812 -11.255  21.635  0.00  0.00    +0.277 C 
ATOM     14  O   UNL     1     -29.241 -10.539  20.544  0.00  0.00    -0.491 OA
ENDBRANCH   7  14
ENDBRANCH   6  12
ENDBRANCH   5   6
ENDBRANCH   1   5
BRANCH   3  15
ATOM     15  C   UNL     1     -30.516 -14.153  16.085  0.00  0.00    +0.114 C 
BRANCH  15  16
ATOM     16  C   UNL     1     -31.656 -13.220  15.728  0.00  0.00    -0.027 A 
ATOM     17  C   UNL     1     -31.683 -12.583  14.475  0.00  0.00    +0.005 A 
ATOM     18  C   UNL     1     -32.724 -11.709  14.149  0.00  0.00    +0.000 A 
ATOM     19  C   UNL     1     -33.743 -11.458  15.071  0.00  0.00    +0.000 A 
ATOM     20  C   UNL     1     -33.722 -12.078  16.323  0.00  0.00    +0.000 A 
ATOM     21  C   UNL     1     -32.684 -12.955  16.653  0.00  0.00    +0.005 A 
ENDBRANCH  15  16
BRANCH  15  22
ATOM     22  C   UNL     1     -30.115 -15.023  14.878  0.00  0.00    +0.147 C 
BRANCH  22  23
ATOM     23  C   UNL     1     -28.762 -14.649  14.354  0.00  0.00    +0.307 C 
ATOM     24  O   UNL     1     -28.652 -14.093  13.228  0.00  0.00    -0.251 OA
BRANCH  23  25
ATOM     25  O   UNL     1     -27.630 -14.878  15.130  0.00  0.00    -0.481 OA
ATOM     26  H   UNL     1     -27.595 -14.581  16.098  0.00  0.00    +0.295 HD
ENDBRANCH  23  25
ENDBRANCH  22  23
ENDBRANCH  15  22
ENDBRANCH   3  15
TORSDOF 9
ENDMDL
MODEL 3
REMARK VINA RESULT:    -4.471      1.957      3.089
REMARK INTER + INTRA:          -9.262
REMARK INTER:                  -7.079
REMARK INTRA:                  -2.183
REMARK UNBOUND:                -2.569
REMARK  Name = 
REMARK  10 active torsions:
REMARK  status: ('A' for Active; 'I' for Inactive)
REMARK    1  A    between atoms: C_1  and  O_2
REMARK    2  A    between atoms: O_2  and  C_3
REMARK    3  A    between atoms: C_8  and  O_9
REMARK    4  A    between atoms: O_9  and  C_10
REMARK    5  A    between atoms: C_10  and  C_11
REMARK    6  A    between atoms: N_13  and  C_14
REMARK    7  A    between atoms: C_14  and  C_15
REMARK    8  A    between atoms: C_14  and  C_19
REMARK    9  A    between atoms: C_15  and  C_16
REMARK   10  A    between atoms: C_16  and  O_18
REMARK                            x       y       z     vdW  Elec       q    Type
REMARK                         _______ _______ _______ _____ _____    ______ ____
ROOT
ATOM      1  C   UNL     1     -31.155 -10.854  15.829  0.00  0.00    +0.251 C 
ATOM      2  O   UNL     1     -32.063 -10.753  14.959  0.00  0.00    -0.272 OA
ATOM      3  N   UNL     1     -30.716 -12.145  16.273  0.00  0.00    -0.305 N 
ATOM      4  H   UNL     1     -29.973 -12.188  17.009  0.00  0.00    +0.149 HD
ENDROOT
BRANCH   1   5
ATOM      5  C   UNL     1     -30.566  -9.618  16.427  0.00  0.00    +0.324 C 
BRANCH   5   6
ATOM      6  O   UNL     1     -29.599  -9.989  17.404  0.00  0.00    -0.479 OA
BRANCH   6  12
ATOM      7  C   UNL     1     -29.212 -11.080  19.519  0.00  0.00    +0.162 A 
ATOM      8  C   UNL     1     -29.441 -11.179  20.906  0.00  0.00    +0.049 A 
ATOM      9  C   UNL     1     -30.296 -10.280  21.545  0.00  0.00    +0.004 A 
ATOM     10  C   UNL     1     -30.929  -9.274  20.814  0.00  0.00    +0.004 A 
ATOM     11  C   UNL     1     -30.708  -9.164  19.439  0.00  0.00    +0.049 A 
ATOM     12  C   UNL     1     -29.848 -10.066  18.782  0.00  0.00    +0.163 A 
BRANCH   7  14
ATOM     13  C   UNL     1     -27.562 -12.961  19.469  0.00  0.00    +0.277 C 
ATOM     14  O   UNL     1     -28.361 -11.965  18.838  0.00  0.00    -0.491 OA
ENDBRANCH   7  14
ENDBRANCH   6  12
ENDBRANCH   5   6
ENDBRANCH   1   5
BRANCH   3  15
ATOM     15  C   UNL     1     -31.266 -13.388  15.722  0.00  0.00    +0.114 C 
BRANCH  15  16
ATOM     16  C   UNL     1     -30.317 -13.963  14.689  0.00  0.00    -0.027 A 
ATOM     17  C   UNL     1     -30.675 -13.976  13.330  0.00  0.00    +0.005 A 
ATOM     18  C   UNL     1     -29.810 -14.521  12.376  0.00  0.00    +0.000 A 
ATOM     19  C   UNL     1     -28.585 -15.062  12.771  0.00  0.00    +0.000 A 
ATOM     20  C   UNL     1     -28.222 -15.062  14.121  0.00  0.00    +0.000 A 
ATOM     21  C   UNL     1     -29.083 -14.517  15.077  0.00  0.00    +0.005 A 
ENDBRANCH  15  16
BRANCH  15  22
ATOM     22  C   UNL     1     -31.532 -14.400  16.853  0.00  0.00    +0.147 C 
BRANCH  22  23
ATOM     23  C   UNL     1     -31.626 -13.724  18.187  0.00  0.00    +0.307 C 
ATOM     24  O   UNL     1     -32.371 -12.717  18.333  0.00  0.00    -0.251 OA
BRANCH  23  25
ATOM     25  O   UNL     1     -30.922 -14.232  19.274  0.00  0.00    -0.481 OA
ATOM     26  H   UNL     1     -30.541 -15.171  19.253  0.00  0.00    +0.295 HD
ENDBRANCH  23  25
ENDBRANCH  22  23
ENDBRANCH  15  22
ENDBRANCH   3  15
TORSDOF 9
ENDMDL
MODEL 4
REMARK VINA RESULT:    -4.380      1.890      2.648
REMARK INTER + INTRA:          -9.126
REMARK INTER:                  -7.421
REMARK INTRA:                  -1.706
REMARK UNBOUND:                -2.569
REMARK  Name = 
REMARK  10 active torsions:
REMARK  status: ('A' for Active; 'I' for Inactive)
REMARK    1  A    between atoms: C_1  and  O_2
REMARK    2  A    between atoms: O_2  and  C_3
REMARK    3  A    between atoms: C_8  and  O_9
REMARK    4  A    between atoms: O_9  and  C_10
REMARK    5  A    between atoms: C_10  and  C_11
REMARK    6  A    between atoms: N_13  and  C_14
REMARK    7  A    between atoms: C_14  and  C_15
REMARK    8  A    between atoms: C_14  and  C_19
REMARK    9  A    between atoms: C_15  and  C_16
REMARK   10  A    between atoms: C_16  and  O_18
REMARK                            x       y       z     vdW  Elec       q    Type
REMARK                         _______ _______ _______ _____ _____    ______ ____
ROOT
ATOM      1  C   UNL     1     -31.123 -10.766  15.874  0.00  0.00    +0.251 C 
ATOM      2  O   UNL     1     -31.880 -10.619  14.876  0.00  0.00    -0.272 OA
ATOM      3  N   UNL     1     -30.864 -12.074  16.401  0.00  0.00    -0.305 N 
ATOM      4  H   UNL     1     -30.245 -12.156  17.241  0.00  0.00    +0.149 HD
ENDROOT
BRANCH   1   5
ATOM      5  C   UNL     1     -30.528  -9.564  16.532  0.00  0.00    +0.324 C 
BRANCH   5   6
ATOM      6  O   UNL     1     -29.251  -9.908  17.062  0.00  0.00    -0.479 OA
BRANCH   6  12
ATOM      7  C   UNL     1     -29.750 -10.240  19.398  0.00  0.00    +0.162 A 
ATOM      8  C   UNL     1     -29.569 -10.954  20.600  0.00  0.00    +0.049 A 
ATOM      9  C   UNL     1     -28.700 -12.045  20.647  0.00  0.00    +0.004 A 
ATOM     10  C   UNL     1     -28.004 -12.437  19.503  0.00  0.00    +0.004 A 
ATOM     11  C   UNL     1     -28.175 -11.738  18.306  0.00  0.00    +0.049 A 
ATOM     12  C   UNL     1     -29.050 -10.635  18.246  0.00  0.00    +0.163 A 
BRANCH   7  14
ATOM     13  C   UNL     1     -30.812  -8.182  20.346  0.00  0.00    +0.277 C 
ATOM     14  O   UNL     1     -30.614  -9.137  19.309  0.00  0.00    -0.491 OA
ENDBRANCH   7  14
ENDBRANCH   6  12
ENDBRANCH   5   6
ENDBRANCH   1   5
BRANCH   3  15
ATOM     15  C   UNL     1     -31.429 -13.285  15.796  0.00  0.00    +0.114 C 
BRANCH  15  16
ATOM     16  C   UNL     1     -30.437 -13.890  14.821  0.00  0.00    -0.027 A 
ATOM     17  C   UNL     1     -29.223 -14.421  15.288  0.00  0.00    +0.005 A 
ATOM     18  C   UNL     1     -28.297 -14.964  14.391  0.00  0.00    +0.000 A 
ATOM     19  C   UNL     1     -28.574 -14.976  13.022  0.00  0.00    +0.000 A 
ATOM     20  C   UNL     1     -29.774 -14.443  12.546  0.00  0.00    +0.000 A 
ATOM     21  C   UNL     1     -30.703 -13.900  13.439  0.00  0.00    +0.005 A 
ENDBRANCH  15  16
BRANCH  15  22
ATOM     22  C   UNL     1     -31.817 -14.298  16.890  0.00  0.00    +0.147 C 
BRANCH  22  23
ATOM     23  C   UNL     1     -31.737 -13.689  18.257  0.00  0.00    +0.307 C 
ATOM     24  O   UNL     1     -32.415 -12.663  18.532  0.00  0.00    -0.251 OA
BRANCH  23  25
ATOM     25  O   UNL     1     -30.944 -14.281  19.235  0.00  0.00    -0.481 OA
ATOM     26  H   UNL     1     -29.974 -14.509  19.051  0.00  0.00    +0.295 HD
ENDBRANCH  23  25
ENDBRANCH  22  23
ENDBRANCH  15  22
ENDBRANCH   3  15
TORSDOF 9
ENDMDL
MODEL 5
REMARK VINA RESULT:    -4.363      1.517      7.045
REMARK INTER + INTRA:          -9.100
REMARK INTER:                  -6.799
REMARK INTRA:                  -2.301
REMARK UNBOUND:                -2.569
REMARK  Name = 
REMARK  10 active torsions:
REMARK  status: ('A' for Active; 'I' for Inactive)
REMARK    1  A    between atoms: C_1  and  O_2
REMARK    2  A    between atoms: O_2  and  C_3
REMARK    3  A    between atoms: C_8  and  O_9
REMARK    4  A    between atoms: O_9  and  C_10
REMARK    5  A    between atoms: C_10  and  C_11
REMARK    6  A    between atoms: N_13  and  C_14
REMARK    7  A    between atoms: C_14  and  C_15
REMARK    8  A    between atoms: C_14  and  C_19
REMARK    9  A    between atoms: C_15  and  C_16
REMARK   10  A    between atoms: C_16  and  O_18
REMARK                            x       y       z     vdW  Elec       q    Type
REMARK                         _______ _______ _______ _____ _____    ______ ____
ROOT
ATOM      1  C   UNL     1     -30.096 -13.829  17.204  0.00  0.00    +0.251 C 
ATOM      2  O   UNL     1     -30.940 -14.387  17.956  0.00  0.00    -0.272 OA
ATOM      3  N   UNL     1     -29.295 -12.744  17.692  0.00  0.00    -0.305 N 
ATOM      4  H   UNL     1     -28.618 -12.294  17.033  0.00  0.00    +0.149 HD
ENDROOT
BRANCH   1   5
ATOM      5  C   UNL     1     -29.962 -14.278  15.785  0.00  0.00    +0.324 C 
BRANCH   5   6
ATOM      6  O   UNL     1     -30.174 -13.164  14.923  0.00  0.00    -0.479 OA
BRANCH   6  12
ATOM      7  C   UNL     1     -32.341 -12.230  14.427  0.00  0.00    +0.162 A 
ATOM      8  C   UNL     1     -33.441 -12.080  13.558  0.00  0.00    +0.049 A 
ATOM      9  C   UNL     1     -33.456 -12.728  12.322  0.00  0.00    +0.004 A 
ATOM     10  C   UNL     1     -32.380 -13.530  11.938  0.00  0.00    +0.004 A 
ATOM     11  C   UNL     1     -31.284 -13.685  12.789  0.00  0.00    +0.049 A 
ATOM     12  C   UNL     1     -31.257 -13.036  14.040  0.00  0.00    +0.163 A 
BRANCH   7  14
ATOM     13  C   UNL     1     -33.304 -11.687  16.672  0.00  0.00    +0.277 C 
ATOM     14  O   UNL     1     -32.288 -11.596  15.678  0.00  0.00    -0.491 OA
ENDBRANCH   7  14
ENDBRANCH   6  12
ENDBRANCH   5   6
ENDBRANCH   1   5
BRANCH   3  15
ATOM     15  C   UNL     1     -29.393 -12.262  19.074  0.00  0.00    +0.114 C 
BRANCH  15  16
ATOM     16  C   UNL     1     -28.362 -12.958  19.940  0.00  0.00    -0.027 A 
ATOM     17  C   UNL     1     -27.005 -12.945  19.573  0.00  0.00    +0.005 A 
ATOM     18  C   UNL     1     -26.053 -13.600  20.360  0.00  0.00    +0.000 A 
ATOM     19  C   UNL     1     -26.447 -14.278  21.516  0.00  0.00    +0.000 A 
ATOM     20  C   UNL     1     -27.794 -14.305  21.887  0.00  0.00    +0.000 A 
ATOM     21  C   UNL     1     -28.749 -13.650  21.103  0.00  0.00    +0.005 A 
ENDBRANCH  15  16
BRANCH  15  22
ATOM     22  C   UNL     1     -29.212 -10.733  19.119  0.00  0.00    +0.147 C 
BRANCH  22  23
ATOM     23  C   UNL     1     -30.119 -10.042  18.148  0.00  0.00    +0.307 C 
ATOM     24  O   UNL     1     -30.960  -9.198  18.559  0.00  0.00    -0.251 OA
BRANCH  23  25
ATOM     25  O   UNL     1     -30.005 -10.302  16.786  0.00  0.00    -0.481 OA
ATOM     26  H   UNL     1     -29.243 -10.865  16.426  0.00  0.00    +0.295 HD
ENDBRANCH  23  25
ENDBRANCH  22  23
ENDBRANCH  15  22
ENDBRANCH   3  15
TORSDOF 9
ENDMDL
MODEL 6
REMARK VINA RESULT:    -4.296      2.137      4.280
REMARK INTER + INTRA:          -9.000
REMARK INTER:                  -6.177
REMARK INTRA:                  -2.822
REMARK UNBOUND:                -2.569
REMARK  Name = 
REMARK  10 active torsions:
REMARK  status: ('A' for Active; 'I' for Inactive)
REMARK    1  A    between atoms: C_1  and  O_2
REMARK    2  A    between atoms: O_2  and  C_3
REMARK    3  A    between atoms: C_8  and  O_9
REMARK    4  A    between atoms: O_9  and  C_10
REMARK    5  A    between atoms: C_10  and  C_11
REMARK    6  A    between atoms: N_13  and  C_14
REMARK    7  A    between atoms: C_14  and  C_15
REMARK    8  A    between atoms: C_14  and  C_19
REMARK    9  A    between atoms: C_15  and  C_16
REMARK   10  A    between atoms: C_16  and  O_18
REMARK                            x       y       z     vdW  Elec       q    Type
REMARK                         _______ _______ _______ _____ _____    ______ ____
ROOT
ATOM      1  C   UNL     1     -28.522 -10.780  18.245  0.00  0.00    +0.251 C 
ATOM      2  O   UNL     1     -27.943 -10.059  17.388  0.00  0.00    -0.272 OA
ATOM      3  N   UNL     1     -29.869 -10.492  18.644  0.00  0.00    -0.305 N 
ATOM      4  H   UNL     1     -30.311 -11.102  19.371  0.00  0.00    +0.149 HD
ENDROOT
BRANCH   1   5
ATOM      5  C   UNL     1     -27.782 -11.915  18.875  0.00  0.00    +0.324 C 
BRANCH   5   6
ATOM      6  O   UNL     1     -28.662 -13.026  19.010  0.00  0.00    -0.479 OA
BRANCH   6  12
ATOM      7  C   UNL     1     -30.925 -13.501  18.325  0.00  0.00    +0.162 A 
ATOM      8  C   UNL     1     -31.844 -13.930  17.346  0.00  0.00    +0.049 A 
ATOM      9  C   UNL     1     -31.398 -14.315  16.081  0.00  0.00    +0.004 A 
ATOM     10  C   UNL     1     -30.037 -14.277  15.777  0.00  0.00    +0.004 A 
ATOM     11  C   UNL     1     -29.117 -13.852  16.737  0.00  0.00    +0.049 A 
ATOM     12  C   UNL     1     -29.555 -13.461  18.018  0.00  0.00    +0.163 A 
BRANCH   7  14
ATOM     13  C   UNL     1     -32.498 -12.333  19.884  0.00  0.00    +0.277 C 
ATOM     14  O   UNL     1     -31.333 -13.106  19.609  0.00  0.00    -0.491 OA
ENDBRANCH   7  14
ENDBRANCH   6  12
ENDBRANCH   5   6
ENDBRANCH   1   5
BRANCH   3  15
ATOM     15  C   UNL     1     -30.636  -9.386  18.060  0.00  0.00    +0.114 C 
BRANCH  15  16
ATOM     16  C   UNL     1     -31.569  -9.912  16.986  0.00  0.00    -0.027 A 
ATOM     17  C   UNL     1     -32.955  -9.953  17.212  0.00  0.00    +0.005 A 
ATOM     18  C   UNL     1     -33.817 -10.453  16.231  0.00  0.00    +0.000 A 
ATOM     19  C   UNL     1     -33.303 -10.921  15.020  0.00  0.00    +0.000 A 
ATOM     20  C   UNL     1     -31.925 -10.893  14.787  0.00  0.00    +0.000 A 
ATOM     21  C   UNL     1     -31.060 -10.393  15.765  0.00  0.00    +0.005 A 
ENDBRANCH  15  16
BRANCH  15  22
ATOM     22  C   UNL     1     -31.421  -8.643  19.158  0.00  0.00    +0.147 C 
BRANCH  22  23
ATOM     23  C   UNL     1     -30.616  -8.509  20.415  0.00  0.00    +0.307 C 
ATOM     24  O   UNL     1     -30.564  -9.463  21.237  0.00  0.00    -0.251 OA
BRANCH  23  25
ATOM     25  O   UNL     1     -29.893  -7.345  20.654  0.00  0.00    -0.481 OA
ATOM     26  H   UNL     1     -29.498  -7.157  21.568  0.00  0.00    +0.295 HD
ENDBRANCH  23  25
ENDBRANCH  22  23
ENDBRANCH  15  22
ENDBRANCH   3  15
TORSDOF 9
ENDMDL
MODEL 7
REMARK VINA RESULT:    -4.227      1.823      3.091
REMARK INTER + INTRA:          -8.897
REMARK INTER:                  -6.878
REMARK INTRA:                  -2.018
REMARK UNBOUND:                -2.569
REMARK  Name = 
REMARK  10 active torsions:
REMARK  status: ('A' for Active; 'I' for Inactive)
REMARK    1  A    between atoms: C_1  and  O_2
REMARK    2  A    between atoms: O_2  and  C_3
REMARK    3  A    between atoms: C_8  and  O_9
REMARK    4  A    between atoms: O_9  and  C_10
REMARK    5  A    between atoms: C_10  and  C_11
REMARK    6  A    between atoms: N_13  and  C_14
REMARK    7  A    between atoms: C_14  and  C_15
REMARK    8  A    between atoms: C_14  and  C_19
REMARK    9  A    between atoms: C_15  and  C_16
REMARK   10  A    between atoms: C_16  and  O_18
REMARK                            x       y       z     vdW  Elec       q    Type
REMARK                         _______ _______ _______ _____ _____    ______ ____
ROOT
ATOM      1  C   UNL     1     -31.140  -9.750  16.781  0.00  0.00    +0.251 C 
ATOM      2  O   UNL     1     -30.314  -9.188  16.011  0.00  0.00    -0.272 OA
ATOM      3  N   UNL     1     -31.949 -10.836  16.309  0.00  0.00    -0.305 N 
ATOM      4  H   UNL     1     -32.636 -11.265  16.971  0.00  0.00    +0.149 HD
ENDROOT
BRANCH   1   5
ATOM      5  C   UNL     1     -31.301  -9.251  18.180  0.00  0.00    +0.324 C 
BRANCH   5   6
ATOM      6  O   UNL     1     -30.071  -9.416  18.878  0.00  0.00    -0.479 OA
BRANCH   6  12
ATOM      7  C   UNL     1     -29.996 -11.554  19.992  0.00  0.00    +0.162 A 
ATOM      8  C   UNL     1     -29.373 -12.799  20.212  0.00  0.00    +0.049 A 
ATOM      9  C   UNL     1     -28.200 -13.131  19.532  0.00  0.00    +0.004 A 
ATOM     10  C   UNL     1     -27.636 -12.230  18.628  0.00  0.00    +0.004 A 
ATOM     11  C   UNL     1     -28.244 -10.994  18.400  0.00  0.00    +0.049 A 
ATOM     12  C   UNL     1     -29.428 -10.648  19.080  0.00  0.00    +0.163 A 
BRANCH   7  14
ATOM     13  C   UNL     1     -32.436 -11.819  20.477  0.00  0.00    +0.277 C 
ATOM     14  O   UNL     1     -31.175 -11.182  20.656  0.00  0.00    -0.491 OA
ENDBRANCH   7  14
ENDBRANCH   6  12
ENDBRANCH   5   6
ENDBRANCH   1   5
BRANCH   3  15
ATOM     15  C   UNL     1     -31.833 -11.358  14.942  0.00  0.00    +0.114 C 
BRANCH  15  16
ATOM     16  C   UNL     1     -31.064 -12.664  14.950  0.00  0.00    -0.027 A 
ATOM     17  C   UNL     1     -30.463 -13.124  16.134  0.00  0.00    +0.005 A 
ATOM     18  C   UNL     1     -29.738 -14.319  16.142  0.00  0.00    +0.000 A 
ATOM     19  C   UNL     1     -29.602 -15.062  14.967  0.00  0.00    +0.000 A 
ATOM     20  C   UNL     1     -30.188 -14.611  13.781  0.00  0.00    +0.000 A 
ATOM     21  C   UNL     1     -30.915 -13.417  13.770  0.00  0.00    +0.005 A 
ENDBRANCH  15  16
BRANCH  15  22
ATOM     22  C   UNL     1     -33.232 -11.543  14.322  0.00  0.00    +0.147 C 
BRANCH  22  23
ATOM     23  C   UNL     1     -34.316 -11.174  15.288  0.00  0.00    +0.307 C 
ATOM     24  O   UNL     1     -34.814 -12.051  16.045  0.00  0.00    -0.251 OA
BRANCH  23  25
ATOM     25  O   UNL     1     -34.745  -9.853  15.378  0.00  0.00    -0.481 OA
ATOM     26  H   UNL     1     -34.168  -9.148  15.821  0.00  0.00    +0.295 HD
ENDBRANCH  23  25
ENDBRANCH  22  23
ENDBRANCH  15  22
ENDBRANCH   3  15
TORSDOF 9
ENDMDL
MODEL 8
REMARK VINA RESULT:    -4.059      1.458      2.961
REMARK INTER + INTRA:          -8.645
REMARK INTER:                  -6.556
REMARK INTRA:                  -2.089
REMARK UNBOUND:                -2.569
REMARK  Name = 
REMARK  10 active torsions:
REMARK  status: ('A' for Active; 'I' for Inactive)
REMARK    1  A    between atoms: C_1  and  O_2
REMARK    2  A    between atoms: O_2  and  C_3
REMARK    3  A    between atoms: C_8  and  O_9
REMARK    4  A    between atoms: O_9  and  C_10
REMARK    5  A    between atoms: C_10  and  C_11
REMARK    6  A    between atoms: N_13  and  C_14
REMARK    7  A    between atoms: C_14  and  C_15
REMARK    8  A    between atoms: C_14  and  C_19
REMARK    9  A    between atoms: C_15  and  C_16
REMARK   10  A    between atoms: C_16  and  O_18
REMARK                            x       y       z     vdW  Elec       q    Type
REMARK                         _______ _______ _______ _____ _____    ______ ____
ROOT
ATOM      1  C   UNL     1     -30.408 -13.363  16.797  0.00  0.00    +0.251 C 
ATOM      2  O   UNL     1     -29.297 -13.357  16.201  0.00  0.00    -0.272 OA
ATOM      3  N   UNL     1     -31.458 -12.477  16.384  0.00  0.00    -0.305 N 
ATOM      4  H   UNL     1     -32.360 -12.498  16.914  0.00  0.00    +0.149 HD
ENDROOT
BRANCH   1   5
ATOM      5  C   UNL     1     -30.614 -14.272  17.964  0.00  0.00    +0.324 C 
BRANCH   5   6
ATOM      6  O   UNL     1     -31.291 -13.560  18.996  0.00  0.00    -0.479 OA
BRANCH   6  12
ATOM      7  C   UNL     1     -31.227 -11.490  20.231  0.00  0.00    +0.162 A 
ATOM      8  C   UNL     1     -30.616 -10.651  21.184  0.00  0.00    +0.049 A 
ATOM      9  C   UNL     1     -29.454 -11.059  21.841  0.00  0.00    +0.004 A 
ATOM     10  C   UNL     1     -28.890 -12.304  21.558  0.00  0.00    +0.004 A 
ATOM     11  C   UNL     1     -29.487 -13.145  20.617  0.00  0.00    +0.049 A 
ATOM     12  C   UNL     1     -30.660 -12.744  19.947  0.00  0.00    +0.163 A 
BRANCH   7  14
ATOM     13  C   UNL     1     -33.452 -10.350  20.117  0.00  0.00    +0.277 C 
ATOM     14  O   UNL     1     -32.395 -11.116  19.548  0.00  0.00    -0.491 OA
ENDBRANCH   7  14
ENDBRANCH   6  12
ENDBRANCH   5   6
ENDBRANCH   1   5
BRANCH   3  15
ATOM     15  C   UNL     1     -31.304 -11.561  15.249  0.00  0.00    +0.114 C 
BRANCH  15  16
ATOM     16  C   UNL     1     -32.141 -12.041  14.079  0.00  0.00    -0.027 A 
ATOM     17  C   UNL     1     -33.472 -11.613  13.939  0.00  0.00    +0.005 A 
ATOM     18  C   UNL     1     -34.253 -12.066  12.872  0.00  0.00    +0.000 A 
ATOM     19  C   UNL     1     -33.713 -12.954  11.938  0.00  0.00    +0.000 A 
ATOM     20  C   UNL     1     -32.393 -13.392  12.070  0.00  0.00    +0.000 A 
ATOM     21  C   UNL     1     -31.609 -12.941  13.136  0.00  0.00    +0.005 A 
ENDBRANCH  15  16
BRANCH  15  22
ATOM     22  C   UNL     1     -31.699 -10.130  15.661  0.00  0.00    +0.147 C 
BRANCH  22  23
ATOM     23  C   UNL     1     -30.941  -9.677  16.871  0.00  0.00    +0.307 C 
ATOM     24  O   UNL     1     -29.757 -10.068  17.059  0.00  0.00    -0.251 OA
BRANCH  23  25
ATOM     25  O   UNL     1     -31.530  -8.791  17.768  0.00  0.00    -0.481 OA
ATOM     26  H   UNL     1     -32.286  -9.090  18.373  0.00  0.00    +0.295 HD
ENDBRANCH  23  25
ENDBRANCH  22  23
ENDBRANCH  15  22
ENDBRANCH   3  15
TORSDOF 9
ENDMDL
MODEL 9
REMARK VINA RESULT:    -4.032      2.256      3.232
REMARK INTER + INTRA:          -8.604
REMARK INTER:                  -6.169
REMARK INTRA:                  -2.435
REMARK UNBOUND:                -2.569
REMARK  Name = 
REMARK  10 active torsions:
REMARK  status: ('A' for Active; 'I' for Inactive)
REMARK    1  A    between atoms: C_1  and  O_2
REMARK    2  A    between atoms: O_2  and  C_3
REMARK    3  A    between atoms: C_8  and  O_9
REMARK    4  A    between atoms: O_9  and  C_10
REMARK    5  A    between atoms: C_10  and  C_11
REMARK    6  A    between atoms: N_13  and  C_14
REMARK    7  A    between atoms: C_14  and  C_15
REMARK    8  A    between atoms: C_14  and  C_19
REMARK    9  A    between atoms: C_15  and  C_16
REMARK   10  A    between atoms: C_16  and  O_18
REMARK                            x       y       z     vdW  Elec       q    Type
REMARK                         _______ _______ _______ _____ _____    ______ ____
ROOT
ATOM      1  C   UNL     1     -31.016 -10.921  15.959  0.00  0.00    +0.251 C 
ATOM      2  O   UNL     1     -32.051 -10.913  15.239  0.00  0.00    -0.272 OA
ATOM      3  N   UNL     1     -30.436 -12.162  16.383  0.00  0.00    -0.305 N 
ATOM      4  H   UNL     1     -29.588 -12.129  16.994  0.00  0.00    +0.149 HD
ENDROOT
BRANCH   1   5
ATOM      5  C   UNL     1     -30.417  -9.626  16.403  0.00  0.00    +0.324 C 
BRANCH   5   6
ATOM      6  O   UNL     1     -31.196  -9.095  17.471  0.00  0.00    -0.479 OA
BRANCH   6  12
ATOM      7  C   UNL     1     -32.444  -9.785  19.415  0.00  0.00    +0.162 A 
ATOM      8  C   UNL     1     -32.482 -10.295  20.729  0.00  0.00    +0.049 A 
ATOM      9  C   UNL     1     -31.299 -10.614  21.396  0.00  0.00    +0.004 A 
ATOM     10  C   UNL     1     -30.068 -10.430  20.765  0.00  0.00    +0.004 A 
ATOM     11  C   UNL     1     -30.016  -9.927  19.463  0.00  0.00    +0.049 A 
ATOM     12  C   UNL     1     -31.205  -9.601  18.779  0.00  0.00    +0.163 A 
BRANCH   7  14
ATOM     13  C   UNL     1     -34.358 -10.362  17.909  0.00  0.00    +0.277 C 
ATOM     14  O   UNL     1     -33.611  -9.451  18.710  0.00  0.00    -0.491 OA
ENDBRANCH   7  14
ENDBRANCH   6  12
ENDBRANCH   5   6
ENDBRANCH   1   5
BRANCH   3  15
ATOM     15  C   UNL     1     -30.990 -13.460  15.979  0.00  0.00    +0.114 C 
BRANCH  15  16
ATOM     16  C   UNL     1     -30.196 -14.023  14.817  0.00  0.00    -0.027 A 
ATOM     17  C   UNL     1     -28.913 -14.556  15.029  0.00  0.00    +0.005 A 
ATOM     18  C   UNL     1     -28.171 -15.061  13.957  0.00  0.00    +0.000 A 
ATOM     19  C   UNL     1     -28.700 -15.033  12.665  0.00  0.00    +0.000 A 
ATOM     20  C   UNL     1     -29.971 -14.498  12.440  0.00  0.00    +0.000 A 
ATOM     21  C   UNL     1     -30.717 -13.993  13.510  0.00  0.00    +0.005 A 
ENDBRANCH  15  16
BRANCH  15  22
ATOM     22  C   UNL     1     -30.989 -14.434  17.173  0.00  0.00    +0.147 C 
BRANCH  22  23
ATOM     23  C   UNL     1     -30.730 -13.722  18.465  0.00  0.00    +0.307 C 
ATOM     24  O   UNL     1     -29.554 -13.398  18.783  0.00  0.00    -0.251 OA
BRANCH  23  25
ATOM     25  O   UNL     1     -31.793 -13.381  19.296  0.00  0.00    -0.481 OA
ATOM     26  H   UNL     1     -32.449 -12.656  19.031  0.00  0.00    +0.295 HD
ENDBRANCH  23  25
ENDBRANCH  22  23
ENDBRANCH  15  22
ENDBRANCH   3  15
TORSDOF 9
ENDMDL
