MODEL 1
REMARK VINA RESULT:    -5.015      0.000      0.000
REMARK INTER + INTRA:          -7.199
REMARK INTER:                  -6.334
REMARK INTRA:                  -0.864
REMARK UNBOUND:                -0.864
REMARK  Name = 
REMARK  6 active torsions:
REMARK  status: ('A' for Active; 'I' for Inactive)
REMARK    1  A    between atoms: C_1  and  N_2
REMARK    2  A    between atoms: N_2  and  C_3
REMARK    3  A    between atoms: C_3  and  C_4
REMARK    4  A    between atoms: C_10  and  C_12
REMARK    5  A    between atoms: C_17  and  C_18
REMARK    6  A    between atoms: C_18  and  O_20
REMARK                            x       y       z     vdW  Elec       q    Type
REMARK                         _______ _______ _______ _____ _____    ______ ____
ROOT
ATOM      1  C   UNL     1     -31.401 -12.236  19.364  0.00  0.00    +0.132 C 
ATOM      2  N   UNL     1     -30.094 -11.596  19.175  0.00  0.00    -0.296 N 
ATOM      3  C   UNL     1     -29.672 -11.182  17.857  0.00  0.00    +0.247 C 
ATOM      4  O   UNL     1     -28.670 -10.428  17.720  0.00  0.00    -0.270 OA
ENDROOT
BRANCH   3   5
ATOM      5  C   UNL     1     -30.406 -11.599  16.646  0.00  0.00    +0.051 A 
ATOM      6  C   UNL     1     -31.241 -10.653  16.031  0.00  0.00    +0.014 A 
ATOM      7  C   UNL     1     -32.003 -10.999  14.916  0.00  0.00    +0.001 A 
ATOM      8  C   UNL     1     -31.939 -12.292  14.400  0.00  0.00    +0.001 A 
ATOM      9  C   UNL     1     -31.103 -13.241  14.989  0.00  0.00    +0.016 A 
ATOM     10  C   UNL     1     -30.314 -12.912  16.110  0.00  0.00    +0.071 A 
BRANCH  10  11
ATOM     11  C   UNL     1     -29.403 -13.950  16.662  0.00  0.00    +0.338 C 
ATOM     12  O   UNL     1     -28.223 -14.071  16.238  0.00  0.00    -0.245 OA
BRANCH  11  13
ATOM     13  O   UNL     1     -29.857 -14.822  17.649  0.00  0.00    -0.477 OA
ATOM     14  H   UNL     1     -30.844 -14.899  17.862  0.00  0.00    +0.295 HD
ENDBRANCH  11  13
ENDBRANCH  10  11
ENDBRANCH   3   5
BRANCH   2  15
ATOM     15  C   UNL     1     -29.250 -11.305  20.342  0.00  0.00    +0.142 C 
BRANCH  15  16
ATOM     16  C   UNL     1     -28.330 -12.463  20.628  0.00  0.00    -0.030 A 
ATOM     17  C   UNL     1     -28.575 -13.304  21.726  0.00  0.00    +0.005 A 
ATOM     18  C   UNL     1     -27.711 -14.367  22.006  0.00  0.00    +0.000 A 
ATOM     19  C   UNL     1     -26.597 -14.597  21.195  0.00  0.00    +0.000 A 
ATOM     20  C   UNL     1     -26.345 -13.764  20.102  0.00  0.00    +0.000 A 
ATOM     21  C   UNL     1     -27.206 -12.699  19.818  0.00  0.00    +0.005 A 
ENDBRANCH  15  16
ENDBRANCH   2  15
TORSDOF 5
ENDMDL
MODEL 2
REMARK VINA RESULT:    -4.495      1.902      5.954
REMARK INTER + INTRA:          -6.541
REMARK INTER:                  -6.336
REMARK INTRA:                  -0.206
REMARK UNBOUND:                -0.864
REMARK  Name = 
REMARK  6 active torsions:
REMARK  status: ('A' for Active; 'I' for Inactive)
REMARK    1  A    between atoms: C_1  and  N_2
REMARK    2  A    between atoms: N_2  and  C_3
REMARK    3  A    between atoms: C_3  and  C_4
REMARK    4  A    between atoms: C_10  and  C_12
REMARK    5  A    between atoms: C_17  and  C_18
REMARK    6  A    between atoms: C_18  and  O_20
REMARK                            x       y       z     vdW  Elec       q    Type
REMARK                         _______ _______ _______ _____ _____    ______ ____
ROOT
ATOM      1  C   UNL     1     -30.839 -14.120  18.169  0.00  0.00    +0.132 C 
ATOM      2  N   UNL     1     -29.631 -13.635  17.492  0.00  0.00    -0.296 N 
ATOM      3  C   UNL     1     -28.652 -12.860  18.220  0.00  0.00    +0.247 C 
ATOM      4  O   UNL     1     -27.515 -12.644  17.720  0.00  0.00    -0.270 OA
ENDROOT
BRANCH   3   5
ATOM      5  C   UNL     1     -28.938 -12.328  19.567  0.00  0.00    +0.051 A 
ATOM      6  C   UNL     1     -29.729 -11.172  19.658  0.00  0.00    +0.014 A 
ATOM      7  C   UNL     1     -29.992 -10.587  20.896  0.00  0.00    +0.001 A 
ATOM      8  C   UNL     1     -29.471 -11.152  22.059  0.00  0.00    +0.001 A 
ATOM      9  C   UNL     1     -28.696 -12.310  21.990  0.00  0.00    +0.016 A 
ATOM     10  C   UNL     1     -28.426 -12.926  20.751  0.00  0.00    +0.071 A 
BRANCH  10  11
ATOM     11  C   UNL     1     -27.638 -14.187  20.746  0.00  0.00    +0.338 C 
ATOM     12  O   UNL     1     -27.770 -15.040  21.664  0.00  0.00    -0.245 OA
BRANCH  11  13
ATOM     13  O   UNL     1     -26.723 -14.432  19.725  0.00  0.00    -0.477 OA
ATOM     14  H   UNL     1     -26.603 -15.362  19.345  0.00  0.00    +0.295 HD
ENDBRANCH  11  13
ENDBRANCH  10  11
ENDBRANCH   3   5
BRANCH   2  15
ATOM     15  C   UNL     1     -29.380 -14.006  16.093  0.00  0.00    +0.142 C 
BRANCH  15  16
ATOM     16  C   UNL     1     -30.387 -13.350  15.186  0.00  0.00    -0.030 A 
ATOM     17  C   UNL     1     -30.931 -12.100  15.523  0.00  0.00    +0.005 A 
ATOM     18  C   UNL     1     -31.883 -11.499  14.694  0.00  0.00    +0.000 A 
ATOM     19  C   UNL     1     -32.300 -12.141  13.525  0.00  0.00    +0.000 A 
ATOM     20  C   UNL     1     -31.765 -13.386  13.183  0.00  0.00    +0.000 A 
ATOM     21  C   UNL     1     -30.813 -13.991  14.009  0.00  0.00    +0.005 A 
ENDBRANCH  15  16
ENDBRANCH   2  15
TORSDOF 5
ENDMDL
MODEL 3
REMARK VINA RESULT:    -4.462      1.635      5.740
REMARK INTER + INTRA:          -6.500
REMARK INTER:                  -5.493
REMARK INTRA:                  -1.007
REMARK UNBOUND:                -0.864
REMARK  Name = 
REMARK  6 active torsions:
REMARK  status: ('A' for Active; 'I' for Inactive)
REMARK    1  A    between atoms: C_1  and  N_2
REMARK    2  A    between atoms: N_2  and  C_3
REMARK    3  A    between atoms: C_3  and  C_4
REMARK    4  A    between atoms: C_10  and  C_12
REMARK    5  A    between atoms: C_17  and  C_18
REMARK    6  A    between atoms: C_18  and  O_20
REMARK                            x       y       z     vdW  Elec       q    Type
REMARK                         _______ _______ _______ _____ _____    ______ ____
ROOT
ATOM      1  C   UNL     1     -29.669 -10.844  21.388  0.00  0.00    +0.132 C 
ATOM      2  N   UNL     1     -30.404 -11.724  20.471  0.00  0.00    -0.296 N 
ATOM      3  C   UNL     1     -29.877 -13.027  20.137  0.00  0.00    +0.247 C 
ATOM      4  O   UNL     1     -30.604 -13.872  19.548  0.00  0.00    -0.270 OA
ENDROOT
BRANCH   3   5
ATOM      5  C   UNL     1     -28.499 -13.416  20.494  0.00  0.00    +0.051 A 
ATOM      6  C   UNL     1     -28.319 -14.206  21.640  0.00  0.00    +0.014 A 
ATOM      7  C   UNL     1     -27.039 -14.563  22.062  0.00  0.00    +0.001 A 
ATOM      8  C   UNL     1     -25.923 -14.138  21.344  0.00  0.00    +0.001 A 
ATOM      9  C   UNL     1     -26.083 -13.365  20.193  0.00  0.00    +0.016 A 
ATOM     10  C   UNL     1     -27.367 -13.001  19.740  0.00  0.00    +0.071 A 
BRANCH  10  11
ATOM     11  C   UNL     1     -27.476 -12.222  18.478  0.00  0.00    +0.338 C 
ATOM     12  O   UNL     1     -27.172 -11.000  18.440  0.00  0.00    -0.245 OA
BRANCH  11  13
ATOM     13  O   UNL     1     -27.942 -12.836  17.318  0.00  0.00    -0.477 OA
ATOM     14  H   UNL     1     -27.386 -13.534  16.839  0.00  0.00    +0.295 HD
ENDBRANCH  11  13
ENDBRANCH  10  11
ENDBRANCH   3   5
BRANCH   2  15
ATOM     15  C   UNL     1     -31.715 -11.307  19.957  0.00  0.00    +0.142 C 
BRANCH  15  16
ATOM     16  C   UNL     1     -31.626 -10.981  18.489  0.00  0.00    -0.030 A 
ATOM     17  C   UNL     1     -32.442 -11.654  17.566  0.00  0.00    +0.005 A 
ATOM     18  C   UNL     1     -32.345 -11.368  16.200  0.00  0.00    +0.000 A 
ATOM     19  C   UNL     1     -31.434 -10.410  15.748  0.00  0.00    +0.000 A 
ATOM     20  C   UNL     1     -30.617  -9.737  16.660  0.00  0.00    +0.000 A 
ATOM     21  C   UNL     1     -30.710 -10.020  18.026  0.00  0.00    +0.005 A 
ENDBRANCH  15  16
ENDBRANCH   2  15
TORSDOF 5
ENDMDL
MODEL 4
REMARK VINA RESULT:    -4.434      2.387      6.687
REMARK INTER + INTRA:          -6.464
REMARK INTER:                  -6.013
REMARK INTRA:                  -0.451
REMARK UNBOUND:                -0.864
REMARK  Name = 
REMARK  6 active torsions:
REMARK  status: ('A' for Active; 'I' for Inactive)
REMARK    1  A    between atoms: C_1  and  N_2
REMARK    2  A    between atoms: N_2  and  C_3
REMARK    3  A    between atoms: C_3  and  C_4
REMARK    4  A    between atoms: C_10  and  C_12
REMARK    5  A    between atoms: C_17  and  C_18
REMARK    6  A    between atoms: C_18  and  O_20
REMARK                            x       y       z     vdW  Elec       q    Type
REMARK                         _______ _______ _______ _____ _____    ______ ____
ROOT
ATOM      1  C   UNL     1     -32.397 -12.200  17.342  0.00  0.00    +0.132 C 
ATOM      2  N   UNL     1     -31.842 -10.990  16.724  0.00  0.00    -0.296 N 
ATOM      3  C   UNL     1     -30.508 -10.549  17.062  0.00  0.00    +0.247 C 
ATOM      4  O   UNL     1     -29.940  -9.661  16.371  0.00  0.00    -0.270 OA
ENDROOT
BRANCH   3   5
ATOM      5  C   UNL     1     -29.766 -11.137  18.196  0.00  0.00    +0.051 A 
ATOM      6  C   UNL     1     -28.977 -12.270  17.943  0.00  0.00    +0.014 A 
ATOM      7  C   UNL     1     -28.294 -12.905  18.979  0.00  0.00    +0.001 A 
ATOM      8  C   UNL     1     -28.389 -12.414  20.280  0.00  0.00    +0.001 A 
ATOM      9  C   UNL     1     -29.156 -11.280  20.548  0.00  0.00    +0.016 A 
ATOM     10  C   UNL     1     -29.846 -10.614  19.516  0.00  0.00    +0.071 A 
BRANCH  10  11
ATOM     11  C   UNL     1     -30.604  -9.381  19.853  0.00  0.00    +0.338 C 
ATOM     12  O   UNL     1     -31.864  -9.381  19.888  0.00  0.00    -0.245 OA
BRANCH  11  13
ATOM     13  O   UNL     1     -29.923  -8.195  20.117  0.00  0.00    -0.477 OA
ATOM     14  H   UNL     1     -29.991  -7.745  21.021  0.00  0.00    +0.295 HD
ENDBRANCH  11  13
ENDBRANCH  10  11
ENDBRANCH   3   5
BRANCH   2  15
ATOM     15  C   UNL     1     -32.615 -10.273  15.701  0.00  0.00    +0.142 C 
BRANCH  15  16
ATOM     16  C   UNL     1     -32.867 -11.163  14.513  0.00  0.00    -0.030 A 
ATOM     17  C   UNL     1     -34.167 -11.301  13.999  0.00  0.00    +0.005 A 
ATOM     18  C   UNL     1     -34.408 -12.144  12.909  0.00  0.00    +0.000 A 
ATOM     19  C   UNL     1     -33.355 -12.855  12.327  0.00  0.00    +0.000 A 
ATOM     20  C   UNL     1     -32.059 -12.725  12.833  0.00  0.00    +0.000 A 
ATOM     21  C   UNL     1     -31.814 -11.884  13.923  0.00  0.00    +0.005 A 
ENDBRANCH  15  16
ENDBRANCH   2  15
TORSDOF 5
ENDMDL
MODEL 5
REMARK VINA RESULT:    -4.383      1.370      2.119
REMARK INTER + INTRA:          -6.401
REMARK INTER:                  -5.686
REMARK INTRA:                  -0.715
REMARK UNBOUND:                -0.864
REMARK  Name = 
REMARK  6 active torsions:
REMARK  status: ('A' for Active; 'I' for Inactive)
REMARK    1  A    between atoms: C_1  and  N_2
REMARK    2  A    between atoms: N_2  and  C_3
REMARK    3  A    between atoms: C_3  and  C_4
REMARK    4  A    between atoms: C_10  and  C_12
REMARK    5  A    between atoms: C_17  and  C_18
REMARK    6  A    between atoms: C_18  and  O_20
REMARK                            x       y       z     vdW  Elec       q    Type
REMARK                         _______ _______ _______ _____ _____    ______ ____
ROOT
ATOM      1  C   UNL     1     -32.461 -13.188  17.614  0.00  0.00    +0.132 C 
ATOM      2  N   UNL     1     -31.435 -12.140  17.659  0.00  0.00    -0.296 N 
ATOM      3  C   UNL     1     -30.815 -11.678  16.438  0.00  0.00    +0.247 C 
ATOM      4  O   UNL     1     -30.116 -10.629  16.439  0.00  0.00    -0.270 OA
ENDROOT
BRANCH   3   5
ATOM      5  C   UNL     1     -31.002 -12.394  15.160  0.00  0.00    +0.051 A 
ATOM      6  C   UNL     1     -31.879 -11.833  14.219  0.00  0.00    +0.014 A 
ATOM      7  C   UNL     1     -32.140 -12.485  13.015  0.00  0.00    +0.001 A 
ATOM      8  C   UNL     1     -31.527 -13.705  12.735  0.00  0.00    +0.001 A 
ATOM      9  C   UNL     1     -30.641 -14.272  13.653  0.00  0.00    +0.016 A 
ATOM     10  C   UNL     1     -30.352 -13.625  14.871  0.00  0.00    +0.071 A 
BRANCH  10  11
ATOM     11  C   UNL     1     -29.359 -14.250  15.785  0.00  0.00    +0.338 C 
ATOM     12  O   UNL     1     -28.123 -14.074  15.620  0.00  0.00    -0.245 OA
BRANCH  11  13
ATOM     13  O   UNL     1     -29.790 -15.062  16.830  0.00  0.00    -0.477 OA
ATOM     14  H   UNL     1     -30.105 -14.662  17.705  0.00  0.00    +0.295 HD
ENDBRANCH  11  13
ENDBRANCH  10  11
ENDBRANCH   3   5
BRANCH   2  15
ATOM     15  C   UNL     1     -31.096 -11.505  18.940  0.00  0.00    +0.142 C 
BRANCH  15  16
ATOM     16  C   UNL     1     -29.882 -12.160  19.546  0.00  0.00    -0.030 A 
ATOM     17  C   UNL     1     -28.607 -11.911  19.013  0.00  0.00    +0.005 A 
ATOM     18  C   UNL     1     -27.481 -12.534  19.561  0.00  0.00    +0.000 A 
ATOM     19  C   UNL     1     -27.620 -13.410  20.641  0.00  0.00    +0.000 A 
ATOM     20  C   UNL     1     -28.886 -13.664  21.176  0.00  0.00    +0.000 A 
ATOM     21  C   UNL     1     -30.015 -13.043  20.632  0.00  0.00    +0.005 A 
ENDBRANCH  15  16
ENDBRANCH   2  15
TORSDOF 5
ENDMDL
MODEL 6
REMARK VINA RESULT:    -4.328      2.012      6.235
REMARK INTER + INTRA:          -6.331
REMARK INTER:                  -5.660
REMARK INTRA:                  -0.670
REMARK UNBOUND:                -0.864
REMARK  Name = 
REMARK  6 active torsions:
REMARK  status: ('A' for Active; 'I' for Inactive)
REMARK    1  A    between atoms: C_1  and  N_2
REMARK    2  A    between atoms: N_2  and  C_3
REMARK    3  A    between atoms: C_3  and  C_4
REMARK    4  A    between atoms: C_10  and  C_12
REMARK    5  A    between atoms: C_17  and  C_18
REMARK    6  A    between atoms: C_18  and  O_20
REMARK                            x       y       z     vdW  Elec       q    Type
REMARK                         _______ _______ _______ _____ _____    ______ ____
ROOT
ATOM      1  C   UNL     1     -33.290 -12.304  17.024  0.00  0.00    +0.132 C 
ATOM      2  N   UNL     1     -32.368 -11.340  16.413  0.00  0.00    -0.296 N 
ATOM      3  C   UNL     1     -31.067 -11.109  16.997  0.00  0.00    +0.247 C 
ATOM      4  O   UNL     1     -30.188 -10.470  16.356  0.00  0.00    -0.270 OA
ENDROOT
BRANCH   3   5
ATOM      5  C   UNL     1     -30.719 -11.630  18.334  0.00  0.00    +0.051 A 
ATOM      6  C   UNL     1     -31.098 -10.869  19.450  0.00  0.00    +0.014 A 
ATOM      7  C   UNL     1     -30.754 -11.277  20.738  0.00  0.00    +0.001 A 
ATOM      8  C   UNL     1     -30.029 -12.452  20.926  0.00  0.00    +0.001 A 
ATOM      9  C   UNL     1     -29.656 -13.230  19.830  0.00  0.00    +0.016 A 
ATOM     10  C   UNL     1     -30.002 -12.844  18.519  0.00  0.00    +0.071 A 
BRANCH  10  11
ATOM     11  C   UNL     1     -29.624 -13.740  17.395  0.00  0.00    +0.338 C 
ATOM     12  O   UNL     1     -30.494 -14.406  16.773  0.00  0.00    -0.245 OA
BRANCH  11  13
ATOM     13  O   UNL     1     -28.287 -13.870  17.028  0.00  0.00    -0.477 OA
ATOM     14  H   UNL     1     -27.544 -13.666  17.685  0.00  0.00    +0.295 HD
ENDBRANCH  11  13
ENDBRANCH  10  11
ENDBRANCH   3   5
BRANCH   2  15
ATOM     15  C   UNL     1     -32.740 -10.669  15.159  0.00  0.00    +0.142 C 
BRANCH  15  16
ATOM     16  C   UNL     1     -32.780 -11.659  14.025  0.00  0.00    -0.030 A 
ATOM     17  C   UNL     1     -33.960 -11.834  13.284  0.00  0.00    +0.005 A 
ATOM     18  C   UNL     1     -34.007 -12.768  12.244  0.00  0.00    +0.000 A 
ATOM     19  C   UNL     1     -32.879 -13.533  11.938  0.00  0.00    +0.000 A 
ATOM     20  C   UNL     1     -31.702 -13.367  12.672  0.00  0.00    +0.000 A 
ATOM     21  C   UNL     1     -31.650 -12.434  13.713  0.00  0.00    +0.005 A 
ENDBRANCH  15  16
ENDBRANCH   2  15
TORSDOF 5
ENDMDL
MODEL 7
REMARK VINA RESULT:    -4.286      2.518      3.976
REMARK INTER + INTRA:          -6.277
REMARK INTER:                  -5.621
REMARK INTRA:                  -0.656
REMARK UNBOUND:                -0.864
REMARK  Name = 
REMARK  6 active torsions:
REMARK  status: ('A' for Active; 'I' for Inactive)
REMARK    1  A    between atoms: C_1  and  N_2
REMARK    2  A    between atoms: N_2  and  C_3
REMARK    3  A    between atoms: C_3  and  C_4
REMARK    4  A    between atoms: C_10  and  C_12
REMARK    5  A    between atoms: C_17  and  C_18
REMARK    6  A    between atoms: C_18  and  O_20
REMARK                            x       y       z     vdW  Elec       q    Type
REMARK                         _______ _______ _______ _____ _____    ______ ____
ROOT
ATOM      1  C   UNL     1     -32.431 -11.290  18.404  0.00  0.00    +0.132 C 
ATOM      2  N   UNL     1     -31.358 -10.398  17.950  0.00  0.00    -0.296 N 
ATOM      3  C   UNL     1     -31.292  -9.986  16.566  0.00  0.00    +0.247 C 
ATOM      4  O   UNL     1     -30.527  -9.046  16.221  0.00  0.00    -0.270 OA
ENDROOT
BRANCH   3   5
ATOM      5  C   UNL     1     -32.128 -10.627  15.532  0.00  0.00    +0.051 A 
ATOM      6  C   UNL     1     -31.601 -11.744  14.865  0.00  0.00    +0.014 A 
ATOM      7  C   UNL     1     -32.316 -12.363  13.841  0.00  0.00    +0.001 A 
ATOM      8  C   UNL     1     -33.568 -11.875  13.471  0.00  0.00    +0.001 A 
ATOM      9  C   UNL     1     -34.115 -10.774  14.132  0.00  0.00    +0.016 A 
ATOM     10  C   UNL     1     -33.416 -10.140  15.179  0.00  0.00    +0.071 A 
BRANCH  10  11
ATOM     11  C   UNL     1     -34.073  -9.005  15.881  0.00  0.00    +0.338 C 
ATOM     12  O   UNL     1     -34.797  -9.199  16.894  0.00  0.00    -0.245 OA
BRANCH  11  13
ATOM     13  O   UNL     1     -33.909  -7.705  15.409  0.00  0.00    -0.477 OA
ATOM     14  H   UNL     1     -34.675  -7.210  14.971  0.00  0.00    +0.295 HD
ENDBRANCH  11  13
ENDBRANCH  10  11
ENDBRANCH   3   5
BRANCH   2  15
ATOM     15  C   UNL     1     -30.397  -9.860  18.922  0.00  0.00    +0.142 C 
BRANCH  15  16
ATOM     16  C   UNL     1     -29.381 -10.908  19.294  0.00  0.00    -0.030 A 
ATOM     17  C   UNL     1     -28.318 -11.198  18.424  0.00  0.00    +0.005 A 
ATOM     18  C   UNL     1     -27.386 -12.187  18.757  0.00  0.00    +0.000 A 
ATOM     19  C   UNL     1     -27.509 -12.891  19.957  0.00  0.00    +0.000 A 
ATOM     20  C   UNL     1     -28.566 -12.609  20.827  0.00  0.00    +0.000 A 
ATOM     21  C   UNL     1     -29.500 -11.623  20.499  0.00  0.00    +0.005 A 
ENDBRANCH  15  16
ENDBRANCH   2  15
TORSDOF 5
ENDMDL
MODEL 8
REMARK VINA RESULT:    -4.270      2.037      6.400
REMARK INTER + INTRA:          -6.257
REMARK INTER:                  -6.192
REMARK INTRA:                  -0.065
REMARK UNBOUND:                -0.864
REMARK  Name = 
REMARK  6 active torsions:
REMARK  status: ('A' for Active; 'I' for Inactive)
REMARK    1  A    between atoms: C_1  and  N_2
REMARK    2  A    between atoms: N_2  and  C_3
REMARK    3  A    between atoms: C_3  and  C_4
REMARK    4  A    between atoms: C_10  and  C_12
REMARK    5  A    between atoms: C_17  and  C_18
REMARK    6  A    between atoms: C_18  and  O_20
REMARK                            x       y       z     vdW  Elec       q    Type
REMARK                         _______ _______ _______ _____ _____    ______ ____
ROOT
ATOM      1  C   UNL     1     -30.659 -11.018  16.413  0.00  0.00    +0.132 C 
ATOM      2  N   UNL     1     -30.859 -12.468  16.301  0.00  0.00    -0.296 N 
ATOM      3  C   UNL     1     -31.322 -13.226  17.441  0.00  0.00    +0.247 C 
ATOM      4  O   UNL     1     -31.719 -14.414  17.292  0.00  0.00    -0.270 OA
ENDROOT
BRANCH   3   5
ATOM      5  C   UNL     1     -31.371 -12.635  18.792  0.00  0.00    +0.051 A 
ATOM      6  C   UNL     1     -32.597 -12.110  19.231  0.00  0.00    +0.014 A 
ATOM      7  C   UNL     1     -32.699 -11.489  20.475  0.00  0.00    +0.001 A 
ATOM      8  C   UNL     1     -31.578 -11.387  21.297  0.00  0.00    +0.001 A 
ATOM      9  C   UNL     1     -30.355 -11.916  20.885  0.00  0.00    +0.016 A 
ATOM     10  C   UNL     1     -30.230 -12.559  19.637  0.00  0.00    +0.071 A 
BRANCH  10  11
ATOM     11  C   UNL     1     -28.914 -13.150  19.274  0.00  0.00    +0.338 C 
ATOM     12  O   UNL     1     -28.123 -12.549  18.501  0.00  0.00    -0.245 OA
BRANCH  11  13
ATOM     13  O   UNL     1     -28.550 -14.397  19.775  0.00  0.00    -0.477 OA
ATOM     14  H   UNL     1     -27.607 -14.572  20.101  0.00  0.00    +0.295 HD
ENDBRANCH  11  13
ENDBRANCH  10  11
ENDBRANCH   3   5
BRANCH   2  15
ATOM     15  C   UNL     1     -30.663 -13.133  15.006  0.00  0.00    +0.142 C 
BRANCH  15  16
ATOM     16  C   UNL     1     -31.830 -12.862  14.094  0.00  0.00    -0.030 A 
ATOM     17  C   UNL     1     -32.943 -12.146  14.566  0.00  0.00    +0.005 A 
ATOM     18  C   UNL     1     -34.037 -11.911  13.728  0.00  0.00    +0.000 A 
ATOM     19  C   UNL     1     -34.029 -12.389  12.415  0.00  0.00    +0.000 A 
ATOM     20  C   UNL     1     -32.927 -13.104  11.938  0.00  0.00    +0.000 A 
ATOM     21  C   UNL     1     -31.831 -13.341  12.772  0.00  0.00    +0.005 A 
ENDBRANCH  15  16
ENDBRANCH   2  15
TORSDOF 5
ENDMDL
