MODEL 1
REMARK VINA RESULT:    -5.247      0.000      0.000
REMARK INTER + INTRA:          -8.269
REMARK INTER:                  -7.240
REMARK INTRA:                  -1.029
REMARK UNBOUND:                -1.029
REMARK  Name = 
REMARK  8 active torsions:
REMARK  status: ('A' for Active; 'I' for Inactive)
REMARK    1  A    between atoms: C_1  and  C_2
REMARK    2  A    between atoms: C_2  and  C_4
REMARK    3  A    between atoms: C_7  and  N_10
REMARK    4  A    between atoms: C_11  and  C_13
REMARK    5  A    between atoms: C_13  and  C_14
REMARK    6  A    between atoms: C_14  and  C_15
REMARK    7  A    between atoms: C_14  and  C_18
REMARK    8  A    between atoms: C_15  and  O_17
REMARK                            x       y       z     vdW  Elec       q    Type
REMARK                         _______ _______ _______ _____ _____    ______ ____
ROOT
ATOM      1  N   UNL     1     -31.249 -12.332  18.891  0.00  0.00    -0.285 N 
ATOM      2  C   UNL     1     -31.914 -13.044  17.836  0.00  0.00    +0.218 C 
ATOM      3  O   UNL     1     -31.489 -14.168  17.453  0.00  0.00    -0.275 OA
ATOM      4  H   UNL     1     -31.783 -11.583  19.387  0.00  0.00    +0.155 HD
ENDROOT
BRANCH   1   8
ATOM      5  C   UNL     1     -27.299 -13.275  20.192  0.00  0.00    +0.017 A 
ATOM      6  C   UNL     1     -28.411 -13.635  20.976  0.00  0.00    +0.013 A 
ATOM      7  C   UNL     1     -29.709 -13.325  20.560  0.00  0.00    +0.024 A 
ATOM      8  C   UNL     1     -29.923 -12.636  19.355  0.00  0.00    +0.033 A 
ATOM      9  C   UNL     1     -28.822 -12.298  18.558  0.00  0.00    +0.024 A 
ATOM     10  C   UNL     1     -27.523 -12.606  18.973  0.00  0.00    +0.013 A 
BRANCH   5  12
ATOM     11  C   UNL     1     -25.664 -14.707  21.641  0.00  0.00    +0.091 C 
ATOM     12  C   UNL     1     -25.924 -13.612  20.650  0.00  0.00    +0.160 C 
ATOM     13  O   UNL     1     -24.938 -12.966  20.199  0.00  0.00    -0.292 OA
ENDBRANCH   5  12
ENDBRANCH   1   8
BRANCH   2  14
ATOM     14  C   UNL     1     -33.121 -12.448  17.168  0.00  0.00    +0.115 C 
BRANCH  14  15
ATOM     15  C   UNL     1     -32.718 -11.342  16.171  0.00  0.00    +0.136 C 
BRANCH  15  16
ATOM     16  C   UNL     1     -32.922 -11.789  14.737  0.00  0.00    -0.033 A 
ATOM     17  C   UNL     1     -31.850 -12.344  14.013  0.00  0.00    +0.004 A 
ATOM     18  C   UNL     1     -32.026 -12.755  12.688  0.00  0.00    +0.000 A 
ATOM     19  C   UNL     1     -33.270 -12.614  12.070  0.00  0.00    +0.000 A 
ATOM     20  C   UNL     1     -34.342 -12.061  12.775  0.00  0.00    +0.000 A 
ATOM     21  C   UNL     1     -34.171 -11.649  14.099  0.00  0.00    +0.004 A 
ENDBRANCH  15  16
BRANCH  15  22
ATOM     22  C   UNL     1     -33.453 -10.051  16.426  0.00  0.00    +0.313 C 
ATOM     23  O   UNL     1     -34.590 -10.055  16.973  0.00  0.00    -0.250 OA
BRANCH  22  24
ATOM     24  O   UNL     1     -32.881  -8.845  16.035  0.00  0.00    -0.480 OA
ATOM     25  H   UNL     1     -32.823  -8.590  15.056  0.00  0.00    +0.295 HD
ENDBRANCH  22  24
ENDBRANCH  15  22
ENDBRANCH  14  15
ENDBRANCH   2  14
TORSDOF 7
ENDMDL
MODEL 2
REMARK VINA RESULT:    -5.120      1.584      2.360
REMARK INTER + INTRA:          -8.095
REMARK INTER:                  -7.231
REMARK INTRA:                  -0.865
REMARK UNBOUND:                -1.029
REMARK  Name = 
REMARK  8 active torsions:
REMARK  status: ('A' for Active; 'I' for Inactive)
REMARK    1  A    between atoms: C_1  and  C_2
REMARK    2  A    between atoms: C_2  and  C_4
REMARK    3  A    between atoms: C_7  and  N_10
REMARK    4  A    between atoms: C_11  and  C_13
REMARK    5  A    between atoms: C_13  and  C_14
REMARK    6  A    between atoms: C_14  and  C_15
REMARK    7  A    between atoms: C_14  and  C_18
REMARK    8  A    between atoms: C_15  and  O_17
REMARK                            x       y       z     vdW  Elec       q    Type
REMARK                         _______ _______ _______ _____ _____    ______ ____
ROOT
ATOM      1  N   UNL     1     -30.001 -11.243  16.833  0.00  0.00    -0.285 N 
ATOM      2  C   UNL     1     -31.002 -10.220  16.955  0.00  0.00    +0.218 C 
ATOM      3  O   UNL     1     -31.235  -9.679  18.070  0.00  0.00    -0.275 OA
ATOM      4  H   UNL     1     -29.619 -11.442  15.882  0.00  0.00    +0.155 HD
ENDROOT
BRANCH   1   8
ATOM      5  C   UNL     1     -28.275 -13.385  20.092  0.00  0.00    +0.017 A 
ATOM      6  C   UNL     1     -29.623 -13.588  19.742  0.00  0.00    +0.013 A 
ATOM      7  C   UNL     1     -30.199 -12.886  18.679  0.00  0.00    +0.024 A 
ATOM      8  C   UNL     1     -29.441 -11.956  17.949  0.00  0.00    +0.033 A 
ATOM      9  C   UNL     1     -28.093 -11.768  18.277  0.00  0.00    +0.024 A 
ATOM     10  C   UNL     1     -27.516 -12.468  19.341  0.00  0.00    +0.013 A 
BRANCH   5  12
ATOM     11  C   UNL     1     -26.195 -14.241  21.419  0.00  0.00    +0.091 C 
ATOM     12  C   UNL     1     -27.679 -14.139  21.227  0.00  0.00    +0.160 C 
ATOM     13  O   UNL     1     -28.430 -14.714  22.062  0.00  0.00    -0.292 OA
ENDBRANCH   5  12
ENDBRANCH   1   8
BRANCH   2  14
ATOM     14  C   UNL     1     -31.791  -9.791  15.751  0.00  0.00    +0.115 C 
BRANCH  14  15
ATOM     15  C   UNL     1     -33.069 -10.640  15.589  0.00  0.00    +0.136 C 
BRANCH  15  16
ATOM     16  C   UNL     1     -33.002 -11.508  14.347  0.00  0.00    -0.033 A 
ATOM     17  C   UNL     1     -34.142 -11.669  13.538  0.00  0.00    +0.004 A 
ATOM     18  C   UNL     1     -34.093 -12.471  12.394  0.00  0.00    +0.000 A 
ATOM     19  C   UNL     1     -32.908 -13.124  12.046  0.00  0.00    +0.000 A 
ATOM     20  C   UNL     1     -31.770 -12.977  12.842  0.00  0.00    +0.000 A 
ATOM     21  C   UNL     1     -31.814 -12.176  13.986  0.00  0.00    +0.004 A 
ENDBRANCH  15  16
BRANCH  15  22
ATOM     22  C   UNL     1     -33.347 -11.487  16.804  0.00  0.00    +0.313 C 
ATOM     23  O   UNL     1     -33.165 -12.735  16.774  0.00  0.00    -0.250 OA
BRANCH  22  24
ATOM     24  O   UNL     1     -33.828 -10.889  17.964  0.00  0.00    -0.480 OA
ATOM     25  H   UNL     1     -33.320 -10.965  18.837  0.00  0.00    +0.295 HD
ENDBRANCH  22  24
ENDBRANCH  15  22
ENDBRANCH  14  15
ENDBRANCH   2  14
TORSDOF 7
ENDMDL
MODEL 3
REMARK VINA RESULT:    -4.610      2.811      6.157
REMARK INTER + INTRA:          -7.391
REMARK INTER:                  -6.183
REMARK INTRA:                  -1.208
REMARK UNBOUND:                -1.029
REMARK  Name = 
REMARK  8 active torsions:
REMARK  status: ('A' for Active; 'I' for Inactive)
REMARK    1  A    between atoms: C_1  and  C_2
REMARK    2  A    between atoms: C_2  and  C_4
REMARK    3  A    between atoms: C_7  and  N_10
REMARK    4  A    between atoms: C_11  and  C_13
REMARK    5  A    between atoms: C_13  and  C_14
REMARK    6  A    between atoms: C_14  and  C_15
REMARK    7  A    between atoms: C_14  and  C_18
REMARK    8  A    between atoms: C_15  and  O_17
REMARK                            x       y       z     vdW  Elec       q    Type
REMARK                         _______ _______ _______ _____ _____    ______ ____
ROOT
ATOM      1  N   UNL     1     -31.875 -12.718  17.738  0.00  0.00    -0.285 N 
ATOM      2  C   UNL     1     -32.134 -11.323  17.961  0.00  0.00    +0.218 C 
ATOM      3  O   UNL     1     -32.113 -10.504  17.002  0.00  0.00    -0.275 OA
ATOM      4  H   UNL     1     -32.198 -13.397  18.463  0.00  0.00    +0.155 HD
ENDROOT
BRANCH   1   8
ATOM      5  C   UNL     1     -29.994 -14.240  14.226  0.00  0.00    +0.017 A 
ATOM      6  C   UNL     1     -31.111 -13.391  14.123  0.00  0.00    +0.013 A 
ATOM      7  C   UNL     1     -31.737 -12.891  15.269  0.00  0.00    +0.024 A 
ATOM      8  C   UNL     1     -31.266 -13.241  16.545  0.00  0.00    +0.033 A 
ATOM      9  C   UNL     1     -30.140 -14.066  16.653  0.00  0.00    +0.024 A 
ATOM     10  C   UNL     1     -29.513 -14.567  15.509  0.00  0.00    +0.013 A 
BRANCH   5  12
ATOM     11  C   UNL     1     -27.854 -14.954  12.908  0.00  0.00    +0.091 C 
ATOM     12  C   UNL     1     -29.340 -14.764  12.997  0.00  0.00    +0.160 C 
ATOM     13  O   UNL     1     -30.042 -15.062  11.992  0.00  0.00    -0.292 OA
ENDBRANCH   5  12
ENDBRANCH   1   8
BRANCH   2  14
ATOM     14  C   UNL     1     -32.422 -10.823  19.348  0.00  0.00    +0.115 C 
BRANCH  14  15
ATOM     15  C   UNL     1     -31.184 -10.138  19.963  0.00  0.00    +0.136 C 
BRANCH  15  16
ATOM     16  C   UNL     1     -29.917 -10.914  19.664  0.00  0.00    -0.033 A 
ATOM     17  C   UNL     1     -29.091 -10.528  18.591  0.00  0.00    +0.004 A 
ATOM     18  C   UNL     1     -27.923 -11.240  18.303  0.00  0.00    +0.000 A 
ATOM     19  C   UNL     1     -27.567 -12.345  19.077  0.00  0.00    +0.000 A 
ATOM     20  C   UNL     1     -28.378 -12.742  20.142  0.00  0.00    +0.000 A 
ATOM     21  C   UNL     1     -29.547 -12.034  20.435  0.00  0.00    +0.004 A 
ENDBRANCH  15  16
BRANCH  15  22
ATOM     22  C   UNL     1     -31.040  -8.708  19.508  0.00  0.00    +0.313 C 
ATOM     23  O   UNL     1     -30.294  -7.906  20.133  0.00  0.00    -0.250 OA
BRANCH  22  24
ATOM     24  O   UNL     1     -31.754  -8.263  18.400  0.00  0.00    -0.480 OA
ATOM     25  H   UNL     1     -32.403  -8.875  17.921  0.00  0.00    +0.295 HD
ENDBRANCH  22  24
ENDBRANCH  15  22
ENDBRANCH  14  15
ENDBRANCH   2  14
TORSDOF 7
ENDMDL
MODEL 4
REMARK VINA RESULT:    -4.459      2.481      7.259
REMARK INTER + INTRA:          -7.182
REMARK INTER:                  -6.402
REMARK INTRA:                  -0.781
REMARK UNBOUND:                -1.029
REMARK  Name = 
REMARK  8 active torsions:
REMARK  status: ('A' for Active; 'I' for Inactive)
REMARK    1  A    between atoms: C_1  and  C_2
REMARK    2  A    between atoms: C_2  and  C_4
REMARK    3  A    between atoms: C_7  and  N_10
REMARK    4  A    between atoms: C_11  and  C_13
REMARK    5  A    between atoms: C_13  and  C_14
REMARK    6  A    between atoms: C_14  and  C_15
REMARK    7  A    between atoms: C_14  and  C_18
REMARK    8  A    between atoms: C_15  and  O_17
REMARK                            x       y       z     vdW  Elec       q    Type
REMARK                         _______ _______ _______ _____ _____    ______ ____
ROOT
ATOM      1  N   UNL     1     -32.340 -10.516  17.887  0.00  0.00    -0.285 N 
ATOM      2  C   UNL     1     -32.337 -11.355  19.052  0.00  0.00    +0.218 C 
ATOM      3  O   UNL     1     -32.377 -12.611  18.939  0.00  0.00    -0.275 OA
ATOM      4  H   UNL     1     -31.999  -9.534  17.991  0.00  0.00    +0.155 HD
ENDROOT
BRANCH   1   8
ATOM      5  C   UNL     1     -33.400 -11.787  13.956  0.00  0.00    +0.017 A 
ATOM      6  C   UNL     1     -34.399 -11.508  14.907  0.00  0.00    +0.013 A 
ATOM      7  C   UNL     1     -34.061 -11.096  16.199  0.00  0.00    +0.024 A 
ATOM      8  C   UNL     1     -32.714 -10.966  16.573  0.00  0.00    +0.033 A 
ATOM      9  C   UNL     1     -31.716 -11.217  15.624  0.00  0.00    +0.024 A 
ATOM     10  C   UNL     1     -32.052 -11.631  14.332  0.00  0.00    +0.013 A 
BRANCH   5  12
ATOM     11  C   UNL     1     -33.154 -13.426  11.938  0.00  0.00    +0.091 C 
ATOM     12  C   UNL     1     -33.777 -12.225  12.586  0.00  0.00    +0.160 C 
ATOM     13  O   UNL     1     -34.645 -11.579  11.938  0.00  0.00    -0.292 OA
ENDBRANCH   5  12
ENDBRANCH   1   8
BRANCH   2  14
ATOM     14  C   UNL     1     -32.296 -10.742  20.423  0.00  0.00    +0.115 C 
BRANCH  14  15
ATOM     15  C   UNL     1     -30.939 -10.059  20.689  0.00  0.00    +0.136 C 
BRANCH  15  16
ATOM     16  C   UNL     1     -29.792 -10.865  20.111  0.00  0.00    -0.033 A 
ATOM     17  C   UNL     1     -29.273 -11.963  20.824  0.00  0.00    +0.004 A 
ATOM     18  C   UNL     1     -28.212 -12.709  20.302  0.00  0.00    +0.000 A 
ATOM     19  C   UNL     1     -27.656 -12.370  19.068  0.00  0.00    +0.000 A 
ATOM     20  C   UNL     1     -28.158 -11.281  18.351  0.00  0.00    +0.000 A 
ATOM     21  C   UNL     1     -29.219 -10.532  18.867  0.00  0.00    +0.004 A 
ENDBRANCH  15  16
BRANCH  15  22
ATOM     22  C   UNL     1     -30.900  -8.647  20.166  0.00  0.00    +0.313 C 
ATOM     23  O   UNL     1     -31.791  -8.228  19.377  0.00  0.00    -0.250 OA
BRANCH  22  24
ATOM     24  O   UNL     1     -29.860  -7.802  20.541  0.00  0.00    -0.480 OA
ATOM     25  H   UNL     1     -29.177  -7.486  19.863  0.00  0.00    +0.295 HD
ENDBRANCH  22  24
ENDBRANCH  15  22
ENDBRANCH  14  15
ENDBRANCH   2  14
TORSDOF 7
ENDMDL
MODEL 5
REMARK VINA RESULT:    -4.339      3.527      5.373
REMARK INTER + INTRA:          -7.017
REMARK INTER:                  -6.320
REMARK INTRA:                  -0.697
REMARK UNBOUND:                -1.029
REMARK  Name = 
REMARK  8 active torsions:
REMARK  status: ('A' for Active; 'I' for Inactive)
REMARK    1  A    between atoms: C_1  and  C_2
REMARK    2  A    between atoms: C_2  and  C_4
REMARK    3  A    between atoms: C_7  and  N_10
REMARK    4  A    between atoms: C_11  and  C_13
REMARK    5  A    between atoms: C_13  and  C_14
REMARK    6  A    between atoms: C_14  and  C_15
REMARK    7  A    between atoms: C_14  and  C_18
REMARK    8  A    between atoms: C_15  and  O_17
REMARK                            x       y       z     vdW  Elec       q    Type
REMARK                         _______ _______ _______ _____ _____    ______ ____
ROOT
ATOM      1  N   UNL     1     -32.181 -11.126  17.568  0.00  0.00    -0.285 N 
ATOM      2  C   UNL     1     -32.294 -12.491  18.000  0.00  0.00    +0.218 C 
ATOM      3  O   UNL     1     -32.385 -12.771  19.226  0.00  0.00    -0.275 OA
ATOM      4  H   UNL     1     -32.418 -10.907  16.574  0.00  0.00    +0.155 HD
ENDROOT
BRANCH   1   8
ATOM      5  C   UNL     1     -31.165  -7.832  20.079  0.00  0.00    +0.017 A 
ATOM      6  C   UNL     1     -30.299  -8.935  19.968  0.00  0.00    +0.013 A 
ATOM      7  C   UNL     1     -30.626 -10.022  19.151  0.00  0.00    +0.024 A 
ATOM      8  C   UNL     1     -31.835 -10.034  18.437  0.00  0.00    +0.033 A 
ATOM      9  C   UNL     1     -32.689  -8.928  18.524  0.00  0.00    +0.024 A 
ATOM     10  C   UNL     1     -32.364  -7.841  19.341  0.00  0.00    +0.013 A 
BRANCH   5  12
ATOM     11  C   UNL     1     -31.757  -6.125  21.965  0.00  0.00    +0.091 C 
ATOM     12  C   UNL     1     -30.802  -6.685  20.953  0.00  0.00    +0.160 C 
ATOM     13  O   UNL     1     -29.661  -6.157  20.853  0.00  0.00    -0.292 OA
ENDBRANCH   5  12
ENDBRANCH   1   8
BRANCH   2  14
ATOM     14  C   UNL     1     -32.293 -13.604  16.991  0.00  0.00    +0.115 C 
BRANCH  14  15
ATOM     15  C   UNL     1     -30.897 -14.248  16.870  0.00  0.00    +0.136 C 
BRANCH  15  16
ATOM     16  C   UNL     1     -30.444 -14.321  15.425  0.00  0.00    -0.033 A 
ATOM     17  C   UNL     1     -31.216 -13.716  14.414  0.00  0.00    +0.004 A 
ATOM     18  C   UNL     1     -30.810 -13.782  13.078  0.00  0.00    +0.000 A 
ATOM     19  C   UNL     1     -29.636 -14.454  12.734  0.00  0.00    +0.000 A 
ATOM     20  C   UNL     1     -28.863 -15.062  13.725  0.00  0.00    +0.000 A 
ATOM     21  C   UNL     1     -29.263 -14.998  15.063  0.00  0.00    +0.004 A 
ENDBRANCH  15  16
BRANCH  15  22
ATOM     22  C   UNL     1     -29.866 -13.531  17.704  0.00  0.00    +0.313 C 
ATOM     23  O   UNL     1     -29.409 -12.413  17.342  0.00  0.00    -0.250 OA
BRANCH  22  24
ATOM     24  O   UNL     1     -29.399 -14.119  18.876  0.00  0.00    -0.480 OA
ATOM     25  H   UNL     1     -28.826 -13.596  19.527  0.00  0.00    +0.295 HD
ENDBRANCH  22  24
ENDBRANCH  15  22
ENDBRANCH  14  15
ENDBRANCH   2  14
TORSDOF 7
ENDMDL
MODEL 6
REMARK VINA RESULT:    -4.163      1.999      2.976
REMARK INTER + INTRA:          -6.774
REMARK INTER:                  -5.718
REMARK INTRA:                  -1.055
REMARK UNBOUND:                -1.029
REMARK  Name = 
REMARK  8 active torsions:
REMARK  status: ('A' for Active; 'I' for Inactive)
REMARK    1  A    between atoms: C_1  and  C_2
REMARK    2  A    between atoms: C_2  and  C_4
REMARK    3  A    between atoms: C_7  and  N_10
REMARK    4  A    between atoms: C_11  and  C_13
REMARK    5  A    between atoms: C_13  and  C_14
REMARK    6  A    between atoms: C_14  and  C_15
REMARK    7  A    between atoms: C_14  and  C_18
REMARK    8  A    between atoms: C_15  and  O_17
REMARK                            x       y       z     vdW  Elec       q    Type
REMARK                         _______ _______ _______ _____ _____    ______ ____
ROOT
ATOM      1  N   UNL     1     -31.022 -11.465  19.411  0.00  0.00    -0.285 N 
ATOM      2  C   UNL     1     -31.302 -10.070  19.605  0.00  0.00    +0.218 C 
ATOM      3  O   UNL     1     -30.364  -9.245  19.776  0.00  0.00    -0.275 OA
ATOM      4  H   UNL     1     -31.763 -12.056  18.972  0.00  0.00    +0.155 HD
ENDROOT
BRANCH   1   8
ATOM      5  C   UNL     1     -27.271 -13.245  20.386  0.00  0.00    +0.017 A 
ATOM      6  C   UNL     1     -27.473 -12.659  19.123  0.00  0.00    +0.013 A 
ATOM      7  C   UNL     1     -28.701 -12.078  18.793  0.00  0.00    +0.024 A 
ATOM      8  C   UNL     1     -29.759 -12.082  19.716  0.00  0.00    +0.033 A 
ATOM      9  C   UNL     1     -29.556 -12.641  20.983  0.00  0.00    +0.024 A 
ATOM     10  C   UNL     1     -28.329 -13.223  21.315  0.00  0.00    +0.013 A 
BRANCH   5  12
ATOM     11  C   UNL     1     -25.802 -14.828  21.856  0.00  0.00    +0.091 C 
ATOM     12  C   UNL     1     -25.958 -13.859  20.721  0.00  0.00    +0.160 C 
ATOM     13  O   UNL     1     -24.938 -13.568  20.039  0.00  0.00    -0.292 OA
ENDBRANCH   5  12
ENDBRANCH   1   8
BRANCH   2  14
ATOM     14  C   UNL     1     -32.722  -9.581  19.616  0.00  0.00    +0.115 C 
BRANCH  14  15
ATOM     15  C   UNL     1     -33.083  -8.883  18.289  0.00  0.00    +0.136 C 
BRANCH  15  16
ATOM     16  C   UNL     1     -33.130  -9.871  17.140  0.00  0.00    -0.033 A 
ATOM     17  C   UNL     1     -34.194 -10.789  17.044  0.00  0.00    +0.004 A 
ATOM     18  C   UNL     1     -34.245 -11.708  15.992  0.00  0.00    +0.000 A 
ATOM     19  C   UNL     1     -33.237 -11.725  15.026  0.00  0.00    +0.000 A 
ATOM     20  C   UNL     1     -32.174 -10.823  15.110  0.00  0.00    +0.000 A 
ATOM     21  C   UNL     1     -32.118  -9.902  16.160  0.00  0.00    +0.004 A 
ENDBRANCH  15  16
BRANCH  15  22
ATOM     22  C   UNL     1     -34.382  -8.124  18.379  0.00  0.00    +0.313 C 
ATOM     23  O   UNL     1     -34.849  -7.527  17.371  0.00  0.00    -0.250 OA
BRANCH  22  24
ATOM     24  O   UNL     1     -35.062  -8.066  19.591  0.00  0.00    -0.480 OA
ATOM     25  H   UNL     1     -34.649  -7.613  20.397  0.00  0.00    +0.295 HD
ENDBRANCH  22  24
ENDBRANCH  15  22
ENDBRANCH  14  15
ENDBRANCH   2  14
TORSDOF 7
ENDMDL
MODEL 7
REMARK VINA RESULT:    -4.155      1.235      2.113
REMARK INTER + INTRA:          -6.763
REMARK INTER:                  -5.890
REMARK INTRA:                  -0.873
REMARK UNBOUND:                -1.029
REMARK  Name = 
REMARK  8 active torsions:
REMARK  status: ('A' for Active; 'I' for Inactive)
REMARK    1  A    between atoms: C_1  and  C_2
REMARK    2  A    between atoms: C_2  and  C_4
REMARK    3  A    between atoms: C_7  and  N_10
REMARK    4  A    between atoms: C_11  and  C_13
REMARK    5  A    between atoms: C_13  and  C_14
REMARK    6  A    between atoms: C_14  and  C_15
REMARK    7  A    between atoms: C_14  and  C_18
REMARK    8  A    between atoms: C_15  and  O_17
REMARK                            x       y       z     vdW  Elec       q    Type
REMARK                         _______ _______ _______ _____ _____    ______ ____
ROOT
ATOM      1  N   UNL     1     -31.276 -12.245  19.014  0.00  0.00    -0.285 N 
ATOM      2  C   UNL     1     -31.973 -12.810  17.892  0.00  0.00    +0.218 C 
ATOM      3  O   UNL     1     -31.579 -13.887  17.368  0.00  0.00    -0.275 OA
ATOM      4  H   UNL     1     -31.785 -11.552  19.607  0.00  0.00    +0.155 HD
ENDROOT
BRANCH   1   8
ATOM      5  C   UNL     1     -27.351 -13.346  20.270  0.00  0.00    +0.017 A 
ATOM      6  C   UNL     1     -27.547 -12.695  19.038  0.00  0.00    +0.013 A 
ATOM      7  C   UNL     1     -28.831 -12.334  18.616  0.00  0.00    +0.024 A 
ATOM      8  C   UNL     1     -29.949 -12.630  19.412  0.00  0.00    +0.033 A 
ATOM      9  C   UNL     1     -29.758 -13.256  20.650  0.00  0.00    +0.024 A 
ATOM     10  C   UNL     1     -28.475 -13.618  21.073  0.00  0.00    +0.013 A 
BRANCH   5  12
ATOM     11  C   UNL     1     -25.736 -14.576  21.913  0.00  0.00    +0.091 C 
ATOM     12  C   UNL     1     -25.979 -13.723  20.703  0.00  0.00    +0.160 C 
ATOM     13  O   UNL     1     -24.981 -13.322  20.044  0.00  0.00    -0.292 OA
ENDBRANCH   5  12
ENDBRANCH   1   8
BRANCH   2  14
ATOM     14  C   UNL     1     -33.177 -12.113  17.325  0.00  0.00    +0.115 C 
BRANCH  14  15
ATOM     15  C   UNL     1     -32.829 -10.683  16.864  0.00  0.00    +0.136 C 
BRANCH  15  16
ATOM     16  C   UNL     1     -33.617 -10.294  15.628  0.00  0.00    -0.033 A 
ATOM     17  C   UNL     1     -33.782 -11.217  14.579  0.00  0.00    +0.004 A 
ATOM     18  C   UNL     1     -34.503 -10.867  13.433  0.00  0.00    +0.000 A 
ATOM     19  C   UNL     1     -35.062  -9.593  13.319  0.00  0.00    +0.000 A 
ATOM     20  C   UNL     1     -34.903  -8.665  14.350  0.00  0.00    +0.000 A 
ATOM     21  C   UNL     1     -34.184  -9.010  15.498  0.00  0.00    +0.004 A 
ENDBRANCH  15  16
BRANCH  15  22
ATOM     22  C   UNL     1     -33.035  -9.666  17.956  0.00  0.00    +0.313 C 
ATOM     23  O   UNL     1     -32.206  -8.732  18.131  0.00  0.00    -0.250 OA
BRANCH  22  24
ATOM     24  O   UNL     1     -34.142  -9.771  18.793  0.00  0.00    -0.480 OA
ATOM     25  H   UNL     1     -34.749  -8.976  18.953  0.00  0.00    +0.295 HD
ENDBRANCH  22  24
ENDBRANCH  15  22
ENDBRANCH  14  15
ENDBRANCH   2  14
TORSDOF 7
ENDMDL
MODEL 8
REMARK VINA RESULT:    -4.105      3.328      5.061
REMARK INTER + INTRA:          -6.694
REMARK INTER:                  -5.351
REMARK INTRA:                  -1.343
REMARK UNBOUND:                -1.029
REMARK  Name = 
REMARK  8 active torsions:
REMARK  status: ('A' for Active; 'I' for Inactive)
REMARK    1  A    between atoms: C_1  and  C_2
REMARK    2  A    between atoms: C_2  and  C_4
REMARK    3  A    between atoms: C_7  and  N_10
REMARK    4  A    between atoms: C_11  and  C_13
REMARK    5  A    between atoms: C_13  and  C_14
REMARK    6  A    between atoms: C_14  and  C_15
REMARK    7  A    between atoms: C_14  and  C_18
REMARK    8  A    between atoms: C_15  and  O_17
REMARK                            x       y       z     vdW  Elec       q    Type
REMARK                         _______ _______ _______ _____ _____    ______ ____
ROOT
ATOM      1  N   UNL     1     -31.281 -12.542  19.429  0.00  0.00    -0.285 N 
ATOM      2  C   UNL     1     -30.329 -13.213  18.589  0.00  0.00    +0.218 C 
ATOM      3  O   UNL     1     -29.175 -12.734  18.418  0.00  0.00    -0.275 OA
ATOM      4  H   UNL     1     -32.087 -13.098  19.795  0.00  0.00    +0.155 HD
ENDROOT
BRANCH   1   8
ATOM      5  C   UNL     1     -30.851  -8.473  20.630  0.00  0.00    +0.017 A 
ATOM      6  C   UNL     1     -30.558  -9.514  21.530  0.00  0.00    +0.013 A 
ATOM      7  C   UNL     1     -30.701 -10.851  21.146  0.00  0.00    +0.024 A 
ATOM      8  C   UNL     1     -31.153 -11.176  19.857  0.00  0.00    +0.033 A 
ATOM      9  C   UNL     1     -31.422 -10.144  18.950  0.00  0.00    +0.024 A 
ATOM     10  C   UNL     1     -31.281  -8.806  19.331  0.00  0.00    +0.013 A 
BRANCH   5  12
ATOM     11  C   UNL     1     -31.734  -6.354  21.876  0.00  0.00    +0.091 C 
ATOM     12  C   UNL     1     -30.694  -7.056  21.054  0.00  0.00    +0.160 C 
ATOM     13  O   UNL     1     -29.661  -6.412  20.721  0.00  0.00    -0.292 OA
ENDBRANCH   5  12
ENDBRANCH   1   8
BRANCH   2  14
ATOM     14  C   UNL     1     -30.705 -14.491  17.895  0.00  0.00    +0.115 C 
BRANCH  14  15
ATOM     15  C   UNL     1     -30.849 -14.278  16.374  0.00  0.00    +0.136 C 
BRANCH  15  16
ATOM     16  C   UNL     1     -31.572 -12.982  16.063  0.00  0.00    -0.033 A 
ATOM     17  C   UNL     1     -32.945 -12.856  16.349  0.00  0.00    +0.004 A 
ATOM     18  C   UNL     1     -33.623 -11.668  16.062  0.00  0.00    +0.000 A 
ATOM     19  C   UNL     1     -32.942 -10.594  15.484  0.00  0.00    +0.000 A 
ATOM     20  C   UNL     1     -31.581 -10.706  15.192  0.00  0.00    +0.000 A 
ATOM     21  C   UNL     1     -30.898 -11.892  15.477  0.00  0.00    +0.004 A 
ENDBRANCH  15  16
BRANCH  15  22
ATOM     22  C   UNL     1     -29.519 -14.317  15.665  0.00  0.00    +0.313 C 
ATOM     23  O   UNL     1     -29.463 -14.363  14.406  0.00  0.00    -0.250 OA
BRANCH  22  24
ATOM     24  O   UNL     1     -28.343 -14.322  16.409  0.00  0.00    -0.480 OA
ATOM     25  H   UNL     1     -27.824 -15.179  16.552  0.00  0.00    +0.295 HD
ENDBRANCH  22  24
ENDBRANCH  15  22
ENDBRANCH  14  15
ENDBRANCH   2  14
TORSDOF 7
ENDMDL
