MODEL 1
REMARK VINA RESULT:    -5.402      0.000      0.000
REMARK INTER + INTRA:          -6.258
REMARK INTER:                  -6.349
REMARK INTRA:                   0.091
REMARK UNBOUND:                 0.091
REMARK  Name = 
REMARK  5 active torsions:
REMARK  status: ('A' for Active; 'I' for Inactive)
REMARK    1  A    between atoms: C_1  and  C_2
REMARK    2  A    between atoms: C_6  and  N_7
REMARK    3  A    between atoms: N_18  and  S_19
REMARK    4  A    between atoms: S_19  and  C_22
REMARK    5  A    between atoms: C_28  and  C_29
REMARK                            x       y       z     vdW  Elec       q    Type
REMARK                         _______ _______ _______ _____ _____    ______ ____
ROOT
ATOM      1  N   UNL     1     -30.918  -8.743  20.261  0.00  0.00    -0.296 N 
ATOM      2  C   UNL     1     -31.024  -9.346  18.960  0.00  0.00    +0.165 A 
ATOM      3  N   UNL     1     -32.110  -9.071  18.183  0.00  0.00    -0.227 NA
ATOM      4  C   UNL     1     -32.286  -9.654  16.969  0.00  0.00    +0.091 A 
ATOM      5  C   UNL     1     -33.407  -9.354  16.189  0.00  0.00    +0.030 A 
ATOM      6  C   UNL     1     -33.573  -9.974  14.945  0.00  0.00    +0.002 A 
ATOM      7  C   UNL     1     -32.621 -10.889  14.481  0.00  0.00    +0.002 A 
ATOM      8  C   UNL     1     -31.497 -11.190  15.259  0.00  0.00    +0.030 A 
ATOM      9  C   UNL     1     -31.330 -10.574  16.504  0.00  0.00    +0.091 A 
ATOM     10  N   UNL     1     -30.248 -10.849  17.272  0.00  0.00    -0.226 NA
ATOM     11  C   UNL     1     -30.056 -10.261  18.486  0.00  0.00    +0.179 A 
ATOM     12  N   UNL     1     -28.859 -10.547  19.226  0.00  0.00    -0.197 N 
ATOM     13  H   UNL     1     -30.430  -9.265  21.022  0.00  0.00    +0.154 HD
ATOM     14  H   UNL     1     -28.592  -9.983  20.061  0.00  0.00    +0.175 HD
ENDROOT
BRANCH   1  20
ATOM     15  C   UNL     1     -34.867  -6.172  22.062  0.00  0.00    +0.044 C 
ATOM     16  C   UNL     1     -33.470  -6.252  21.498  0.00  0.00    -0.046 A 
ATOM     17  C   UNL     1     -32.730  -5.066  21.368  0.00  0.00    +0.004 A 
ATOM     18  C   UNL     1     -31.432  -5.091  20.867  0.00  0.00    +0.002 A 
ATOM     19  C   UNL     1     -30.849  -6.299  20.492  0.00  0.00    +0.023 A 
ATOM     20  C   UNL     1     -31.567  -7.501  20.592  0.00  0.00    +0.036 A 
ATOM     21  C   UNL     1     -32.903  -7.482  21.072  0.00  0.00    -0.026 A 
ATOM     22  C   UNL     1     -33.689  -8.772  21.154  0.00  0.00    +0.046 C 
ENDBRANCH   1  20
BRANCH  12  23
ATOM     23  S   UNL     1     -27.719 -11.734  18.684  0.00  0.00    +0.074 S 
ATOM     24  O   UNL     1     -26.472 -11.048  18.201  0.00  0.00    -0.150 OA
ATOM     25  O   UNL     1     -28.311 -12.508  17.539  0.00  0.00    -0.150 OA
BRANCH  23  26
ATOM     26  C   UNL     1     -27.349 -12.845  19.999  0.00  0.00    +0.109 A 
ATOM     27  C   UNL     1     -26.082 -13.440  20.070  0.00  0.00    +0.029 A 
ATOM     28  C   UNL     1     -25.787 -14.343  21.096  0.00  0.00    +0.002 A 
ATOM     29  C   UNL     1     -26.757 -14.660  22.051  0.00  0.00    +0.000 A 
ATOM     30  C   UNL     1     -28.023 -14.072  21.981  0.00  0.00    +0.002 A 
ATOM     31  C   UNL     1     -28.321 -13.166  20.959  0.00  0.00    +0.029 A 
ENDBRANCH  23  26
ENDBRANCH  12  23
TORSDOF 3
ENDMDL
MODEL 2
REMARK VINA RESULT:    -5.195      2.331      6.239
REMARK INTER + INTRA:          -6.016
REMARK INTER:                  -6.357
REMARK INTRA:                   0.341
REMARK UNBOUND:                 0.091
REMARK  Name = 
REMARK  5 active torsions:
REMARK  status: ('A' for Active; 'I' for Inactive)
REMARK    1  A    between atoms: C_1  and  C_2
REMARK    2  A    between atoms: C_6  and  N_7
REMARK    3  A    between atoms: N_18  and  S_19
REMARK    4  A    between atoms: S_19  and  C_22
REMARK    5  A    between atoms: C_28  and  C_29
REMARK                            x       y       z     vdW  Elec       q    Type
REMARK                         _______ _______ _______ _____ _____    ______ ____
ROOT
ATOM      1  N   UNL     1     -30.691 -11.970  15.924  0.00  0.00    -0.296 N 
ATOM      2  C   UNL     1     -31.407 -11.156  16.867  0.00  0.00    +0.165 A 
ATOM      3  N   UNL     1     -32.393 -10.327  16.422  0.00  0.00    -0.227 NA
ATOM      4  C   UNL     1     -33.064  -9.498  17.262  0.00  0.00    +0.091 A 
ATOM      5  C   UNL     1     -34.073  -8.658  16.782  0.00  0.00    +0.030 A 
ATOM      6  C   UNL     1     -34.746  -7.805  17.664  0.00  0.00    +0.002 A 
ATOM      7  C   UNL     1     -34.412  -7.793  19.024  0.00  0.00    +0.002 A 
ATOM      8  C   UNL     1     -33.403  -8.633  19.508  0.00  0.00    +0.030 A 
ATOM      9  C   UNL     1     -32.727  -9.485  18.627  0.00  0.00    +0.091 A 
ATOM     10  N   UNL     1     -31.749 -10.309  19.076  0.00  0.00    -0.226 NA
ATOM     11  C   UNL     1     -31.078 -11.152  18.243  0.00  0.00    +0.179 A 
ATOM     12  N   UNL     1     -30.094 -12.046  18.787  0.00  0.00    -0.197 N 
ATOM     13  H   UNL     1     -29.692 -12.205  16.114  0.00  0.00    +0.154 HD
ATOM     14  H   UNL     1     -29.698 -12.824  18.219  0.00  0.00    +0.175 HD
ENDROOT
BRANCH   1  20
ATOM     15  C   UNL     1     -30.849 -15.062  11.941  0.00  0.00    +0.044 C 
ATOM     16  C   UNL     1     -31.359 -13.892  12.744  0.00  0.00    -0.046 A 
ATOM     17  C   UNL     1     -32.499 -13.210  12.286  0.00  0.00    +0.004 A 
ATOM     18  C   UNL     1     -33.016 -12.134  13.001  0.00  0.00    +0.002 A 
ATOM     19  C   UNL     1     -32.409 -11.724  14.186  0.00  0.00    +0.023 A 
ATOM     20  C   UNL     1     -31.259 -12.372  14.662  0.00  0.00    +0.036 A 
ATOM     21  C   UNL     1     -30.705 -13.450  13.924  0.00  0.00    -0.026 A 
ATOM     22  C   UNL     1     -29.449 -14.132  14.419  0.00  0.00    +0.046 C 
ENDBRANCH   1  20
BRANCH  12  23
ATOM     23  S   UNL     1     -29.632 -11.977  20.456  0.00  0.00    +0.074 S 
ATOM     24  O   UNL     1     -30.768 -12.465  21.311  0.00  0.00    -0.150 OA
ATOM     25  O   UNL     1     -29.331 -10.554  20.833  0.00  0.00    -0.150 OA
BRANCH  23  26
ATOM     26  C   UNL     1     -28.193 -12.957  20.713  0.00  0.00    +0.109 A 
ATOM     27  C   UNL     1     -28.165 -13.890  21.759  0.00  0.00    +0.029 A 
ATOM     28  C   UNL     1     -27.017 -14.655  21.988  0.00  0.00    +0.002 A 
ATOM     29  C   UNL     1     -25.891 -14.488  21.177  0.00  0.00    +0.000 A 
ATOM     30  C   UNL     1     -25.912 -13.556  20.136  0.00  0.00    +0.002 A 
ATOM     31  C   UNL     1     -27.060 -12.791  19.902  0.00  0.00    +0.029 A 
ENDBRANCH  23  26
ENDBRANCH  12  23
TORSDOF 3
ENDMDL
MODEL 3
REMARK VINA RESULT:    -5.015      2.743      7.660
REMARK INTER + INTRA:          -5.804
REMARK INTER:                  -5.402
REMARK INTRA:                  -0.402
REMARK UNBOUND:                 0.091
REMARK  Name = 
REMARK  5 active torsions:
REMARK  status: ('A' for Active; 'I' for Inactive)
REMARK    1  A    between atoms: C_1  and  C_2
REMARK    2  A    between atoms: C_6  and  N_7
REMARK    3  A    between atoms: N_18  and  S_19
REMARK    4  A    between atoms: S_19  and  C_22
REMARK    5  A    between atoms: C_28  and  C_29
REMARK                            x       y       z     vdW  Elec       q    Type
REMARK                         _______ _______ _______ _____ _____    ______ ____
ROOT
ATOM      1  N   UNL     1     -30.293 -11.648  18.566  0.00  0.00    -0.296 N 
ATOM      2  C   UNL     1     -30.864 -10.346  18.778  0.00  0.00    +0.165 A 
ATOM      3  N   UNL     1     -30.408  -9.575  19.807  0.00  0.00    -0.227 NA
ATOM      4  C   UNL     1     -30.948  -8.361  20.084  0.00  0.00    +0.091 A 
ATOM      5  C   UNL     1     -30.462  -7.588  21.143  0.00  0.00    +0.030 A 
ATOM      6  C   UNL     1     -31.040  -6.343  21.417  0.00  0.00    +0.002 A 
ATOM      7  C   UNL     1     -32.099  -5.871  20.634  0.00  0.00    +0.002 A 
ATOM      8  C   UNL     1     -32.588  -6.641  19.572  0.00  0.00    +0.030 A 
ATOM      9  C   UNL     1     -32.014  -7.887  19.298  0.00  0.00    +0.091 A 
ATOM     10  N   UNL     1     -32.469  -8.648  18.273  0.00  0.00    -0.226 NA
ATOM     11  C   UNL     1     -31.927  -9.863  17.980  0.00  0.00    +0.179 A 
ATOM     12  N   UNL     1     -32.412 -10.596  16.843  0.00  0.00    -0.197 N 
ATOM     13  H   UNL     1     -30.893 -12.404  18.169  0.00  0.00    +0.154 HD
ATOM     14  H   UNL     1     -31.904 -11.431  16.482  0.00  0.00    +0.175 HD
ENDROOT
BRANCH   1  20
ATOM     15  C   UNL     1     -27.139 -14.270  21.503  0.00  0.00    +0.044 C 
ATOM     16  C   UNL     1     -27.427 -13.284  20.398  0.00  0.00    -0.046 A 
ATOM     17  C   UNL     1     -26.345 -12.731  19.693  0.00  0.00    +0.004 A 
ATOM     18  C   UNL     1     -26.561 -11.828  18.656  0.00  0.00    +0.002 A 
ATOM     19  C   UNL     1     -27.859 -11.467  18.302  0.00  0.00    +0.023 A 
ATOM     20  C   UNL     1     -28.962 -11.987  18.997  0.00  0.00    +0.036 A 
ATOM     21  C   UNL     1     -28.751 -12.883  20.076  0.00  0.00    -0.026 A 
ATOM     22  C   UNL     1     -29.936 -13.423  20.847  0.00  0.00    +0.046 C 
ENDBRANCH   1  20
BRANCH  12  23
ATOM     23  S   UNL     1     -33.771 -10.042  15.921  0.00  0.00    +0.074 S 
ATOM     24  O   UNL     1     -33.661  -8.559  15.708  0.00  0.00    -0.150 OA
ATOM     25  O   UNL     1     -35.037 -10.322  16.681  0.00  0.00    -0.150 OA
BRANCH  23  26
ATOM     26  C   UNL     1     -33.826 -10.891  14.380  0.00  0.00    +0.109 A 
ATOM     27  C   UNL     1     -34.706 -10.458  13.379  0.00  0.00    +0.029 A 
ATOM     28  C   UNL     1     -34.776 -11.141  12.161  0.00  0.00    +0.002 A 
ATOM     29  C   UNL     1     -33.971 -12.263  11.940  0.00  0.00    +0.000 A 
ATOM     30  C   UNL     1     -33.095 -12.701  12.936  0.00  0.00    +0.002 A 
ATOM     31  C   UNL     1     -33.020 -12.018  14.155  0.00  0.00    +0.029 A 
ENDBRANCH  23  26
ENDBRANCH  12  23
TORSDOF 3
ENDMDL
MODEL 4
REMARK VINA RESULT:    -4.924      2.577      7.508
REMARK INTER + INTRA:          -5.697
REMARK INTER:                  -5.456
REMARK INTRA:                  -0.241
REMARK UNBOUND:                 0.091
REMARK  Name = 
REMARK  5 active torsions:
REMARK  status: ('A' for Active; 'I' for Inactive)
REMARK    1  A    between atoms: C_1  and  C_2
REMARK    2  A    between atoms: C_6  and  N_7
REMARK    3  A    between atoms: N_18  and  S_19
REMARK    4  A    between atoms: S_19  and  C_22
REMARK    5  A    between atoms: C_28  and  C_29
REMARK                            x       y       z     vdW  Elec       q    Type
REMARK                         _______ _______ _______ _____ _____    ______ ____
ROOT
ATOM      1  N   UNL     1     -30.300 -12.637  19.186  0.00  0.00    -0.296 N 
ATOM      2  C   UNL     1     -30.759 -11.275  19.224  0.00  0.00    +0.165 A 
ATOM      3  N   UNL     1     -30.426 -10.487  20.285  0.00  0.00    -0.227 NA
ATOM      4  C   UNL     1     -30.876  -9.211  20.397  0.00  0.00    +0.091 A 
ATOM      5  C   UNL     1     -30.517  -8.421  21.494  0.00  0.00    +0.030 A 
ATOM      6  C   UNL     1     -31.001  -7.111  21.594  0.00  0.00    +0.002 A 
ATOM      7  C   UNL     1     -31.839  -6.592  20.600  0.00  0.00    +0.002 A 
ATOM      8  C   UNL     1     -32.198  -7.379  19.501  0.00  0.00    +0.030 A 
ATOM      9  C   UNL     1     -31.719  -8.690  19.400  0.00  0.00    +0.091 A 
ATOM     10  N   UNL     1     -32.052  -9.469  18.342  0.00  0.00    -0.226 NA
ATOM     11  C   UNL     1     -31.597 -10.746  18.214  0.00  0.00    +0.179 A 
ATOM     12  N   UNL     1     -31.935 -11.501  17.040  0.00  0.00    -0.197 N 
ATOM     13  H   UNL     1     -30.891 -13.357  18.715  0.00  0.00    +0.154 HD
ATOM     14  H   UNL     1     -31.460 -12.403  16.822  0.00  0.00    +0.175 HD
ENDROOT
BRANCH   1  20
ATOM     15  C   UNL     1     -25.283 -12.792  19.685  0.00  0.00    +0.044 C 
ATOM     16  C   UNL     1     -26.681 -13.122  20.144  0.00  0.00    -0.046 A 
ATOM     17  C   UNL     1     -26.845 -13.815  21.354  0.00  0.00    +0.004 A 
ATOM     18  C   UNL     1     -28.116 -14.129  21.827  0.00  0.00    +0.002 A 
ATOM     19  C   UNL     1     -29.244 -13.751  21.102  0.00  0.00    +0.023 A 
ATOM     20  C   UNL     1     -29.117 -13.073  19.880  0.00  0.00    +0.036 A 
ATOM     21  C   UNL     1     -27.824 -12.777  19.374  0.00  0.00    -0.026 A 
ATOM     22  C   UNL     1     -27.682 -12.072  18.043  0.00  0.00    +0.046 C 
ENDBRANCH   1  20
BRANCH  12  23
ATOM     23  S   UNL     1     -33.031 -10.882  15.849  0.00  0.00    +0.074 S 
ATOM     24  O   UNL     1     -32.693  -9.447  15.556  0.00  0.00    -0.150 OA
ATOM     25  O   UNL     1     -34.434 -10.942  16.382  0.00  0.00    -0.150 OA
BRANCH  23  26
ATOM     26  C   UNL     1     -32.928 -11.857  14.386  0.00  0.00    +0.109 A 
ATOM     27  C   UNL     1     -31.745 -12.549  14.094  0.00  0.00    +0.029 A 
ATOM     28  C   UNL     1     -31.644 -13.304  12.922  0.00  0.00    +0.002 A 
ATOM     29  C   UNL     1     -32.723 -13.368  12.035  0.00  0.00    +0.000 A 
ATOM     30  C   UNL     1     -33.903 -12.676  12.320  0.00  0.00    +0.002 A 
ATOM     31  C   UNL     1     -34.009 -11.922  13.493  0.00  0.00    +0.029 A 
ENDBRANCH  23  26
ENDBRANCH  12  23
TORSDOF 3
ENDMDL
MODEL 5
REMARK VINA RESULT:    -4.845      2.932      7.438
REMARK INTER + INTRA:          -5.604
REMARK INTER:                  -5.398
REMARK INTRA:                  -0.206
REMARK UNBOUND:                 0.091
REMARK  Name = 
REMARK  5 active torsions:
REMARK  status: ('A' for Active; 'I' for Inactive)
REMARK    1  A    between atoms: C_1  and  C_2
REMARK    2  A    between atoms: C_6  and  N_7
REMARK    3  A    between atoms: N_18  and  S_19
REMARK    4  A    between atoms: S_19  and  C_22
REMARK    5  A    between atoms: C_28  and  C_29
REMARK                            x       y       z     vdW  Elec       q    Type
REMARK                         _______ _______ _______ _____ _____    ______ ____
ROOT
ATOM      1  N   UNL     1     -29.553 -11.788  19.200  0.00  0.00    -0.296 N 
ATOM      2  C   UNL     1     -30.139 -12.154  17.940  0.00  0.00    +0.165 A 
ATOM      3  N   UNL     1     -29.514 -13.075  17.154  0.00  0.00    -0.227 NA
ATOM      4  C   UNL     1     -29.995 -13.417  15.931  0.00  0.00    +0.091 A 
ATOM      5  C   UNL     1     -29.337 -14.368  15.145  0.00  0.00    +0.030 A 
ATOM      6  C   UNL     1     -29.846 -14.698  13.883  0.00  0.00    +0.002 A 
ATOM      7  C   UNL     1     -31.011 -14.082  13.411  0.00  0.00    +0.002 A 
ATOM      8  C   UNL     1     -31.673 -13.132  14.196  0.00  0.00    +0.030 A 
ATOM      9  C   UNL     1     -31.165 -12.798  15.456  0.00  0.00    +0.091 A 
ATOM     10  N   UNL     1     -31.792 -11.882  16.234  0.00  0.00    -0.226 NA
ATOM     11  C   UNL     1     -31.323 -11.540  17.467  0.00  0.00    +0.179 A 
ATOM     12  N   UNL     1     -32.065 -10.609  18.270  0.00  0.00    -0.197 N 
ATOM     13  H   UNL     1     -29.693 -10.819  19.561  0.00  0.00    +0.154 HD
ATOM     14  H   UNL     1     -31.840 -10.466  19.277  0.00  0.00    +0.175 HD
ENDROOT
BRANCH   1  20
ATOM     15  C   UNL     1     -24.939 -13.533  20.253  0.00  0.00    +0.044 C 
ATOM     16  C   UNL     1     -26.431 -13.493  20.465  0.00  0.00    -0.046 A 
ATOM     17  C   UNL     1     -26.987 -14.288  21.480  0.00  0.00    +0.004 A 
ATOM     18  C   UNL     1     -28.357 -14.273  21.724  0.00  0.00    +0.002 A 
ATOM     19  C   UNL     1     -29.195 -13.461  20.962  0.00  0.00    +0.023 A 
ATOM     20  C   UNL     1     -28.675 -12.667  19.928  0.00  0.00    +0.036 A 
ATOM     21  C   UNL     1     -27.283 -12.700  19.651  0.00  0.00    -0.026 A 
ATOM     22  C   UNL     1     -26.724 -11.868  18.518  0.00  0.00    +0.046 C 
ENDBRANCH   1  20
BRANCH  12  23
ATOM     23  S   UNL     1     -33.465  -9.795  17.653  0.00  0.00    +0.074 S 
ATOM     24  O   UNL     1     -34.544 -10.801  17.367  0.00  0.00    -0.150 OA
ATOM     25  O   UNL     1     -33.112  -9.097  16.370  0.00  0.00    -0.150 OA
BRANCH  23  26
ATOM     26  C   UNL     1     -34.020  -8.602  18.823  0.00  0.00    +0.109 A 
ATOM     27  C   UNL     1     -33.914  -8.873  20.194  0.00  0.00    +0.029 A 
ATOM     28  C   UNL     1     -34.376  -7.944  21.132  0.00  0.00    +0.002 A 
ATOM     29  C   UNL     1     -34.951  -6.743  20.703  0.00  0.00    +0.000 A 
ATOM     30  C   UNL     1     -35.062  -6.471  19.337  0.00  0.00    +0.002 A 
ATOM     31  C   UNL     1     -34.598  -7.397  18.397  0.00  0.00    +0.029 A 
ENDBRANCH  23  26
ENDBRANCH  12  23
TORSDOF 3
ENDMDL
MODEL 6
REMARK VINA RESULT:    -4.489      2.280      5.862
REMARK INTER + INTRA:          -5.186
REMARK INTER:                  -5.607
REMARK INTRA:                   0.421
REMARK UNBOUND:                 0.091
REMARK  Name = 
REMARK  5 active torsions:
REMARK  status: ('A' for Active; 'I' for Inactive)
REMARK    1  A    between atoms: C_1  and  C_2
REMARK    2  A    between atoms: C_6  and  N_7
REMARK    3  A    between atoms: N_18  and  S_19
REMARK    4  A    between atoms: S_19  and  C_22
REMARK    5  A    between atoms: C_28  and  C_29
REMARK                            x       y       z     vdW  Elec       q    Type
REMARK                         _______ _______ _______ _____ _____    ______ ____
ROOT
ATOM      1  N   UNL     1     -32.290 -10.418  16.416  0.00  0.00    -0.296 N 
ATOM      2  C   UNL     1     -32.665  -9.577  17.519  0.00  0.00    +0.165 A 
ATOM      3  N   UNL     1     -33.511  -8.529  17.303  0.00  0.00    -0.227 NA
ATOM      4  C   UNL     1     -33.856  -7.672  18.298  0.00  0.00    +0.091 A 
ATOM      5  C   UNL     1     -34.728  -6.607  18.052  0.00  0.00    +0.030 A 
ATOM      6  C   UNL     1     -35.062  -5.729  19.090  0.00  0.00    +0.002 A 
ATOM      7  C   UNL     1     -34.529  -5.917  20.370  0.00  0.00    +0.002 A 
ATOM      8  C   UNL     1     -33.658  -6.983  20.620  0.00  0.00    +0.030 A 
ATOM      9  C   UNL     1     -33.319  -7.860  19.584  0.00  0.00    +0.091 A 
ATOM     10  N   UNL     1     -32.479  -8.901  19.804  0.00  0.00    -0.226 NA
ATOM     11  C   UNL     1     -32.136  -9.773  18.816  0.00  0.00    +0.179 A 
ATOM     12  N   UNL     1     -31.290 -10.892  19.125  0.00  0.00    -0.197 N 
ATOM     13  H   UNL     1     -31.345 -10.863  16.418  0.00  0.00    +0.154 HD
ATOM     14  H   UNL     1     -31.158 -11.673  18.448  0.00  0.00    +0.175 HD
ENDROOT
BRANCH   1  20
ATOM     15  C   UNL     1     -33.640 -12.963  12.275  0.00  0.00    +0.044 C 
ATOM     16  C   UNL     1     -33.796 -11.826  13.254  0.00  0.00    -0.046 A 
ATOM     17  C   UNL     1     -34.852 -10.919  13.067  0.00  0.00    +0.004 A 
ATOM     18  C   UNL     1     -35.046  -9.863  13.952  0.00  0.00    +0.002 A 
ATOM     19  C   UNL     1     -34.192  -9.697  15.041  0.00  0.00    +0.023 A 
ATOM     20  C   UNL     1     -33.116 -10.574  15.247  0.00  0.00    +0.036 A 
ATOM     21  C   UNL     1     -32.891 -11.635  14.332  0.00  0.00    -0.026 A 
ATOM     22  C   UNL     1     -31.715 -12.565  14.535  0.00  0.00    +0.046 C 
ENDBRANCH   1  20
BRANCH  12  23
ATOM     23  S   UNL     1     -30.573 -11.080  20.692  0.00  0.00    +0.074 S 
ATOM     24  O   UNL     1     -31.588 -11.651  21.642  0.00  0.00    -0.150 OA
ATOM     25  O   UNL     1     -30.141  -9.736  21.208  0.00  0.00    -0.150 OA
BRANCH  23  26
ATOM     26  C   UNL     1     -29.166 -12.132  20.577  0.00  0.00    +0.109 A 
ATOM     27  C   UNL     1     -28.217 -11.915  19.570  0.00  0.00    +0.029 A 
ATOM     28  C   UNL     1     -27.109 -12.761  19.454  0.00  0.00    +0.002 A 
ATOM     29  C   UNL     1     -26.950 -13.831  20.340  0.00  0.00    +0.000 A 
ATOM     30  C   UNL     1     -27.896 -14.054  21.343  0.00  0.00    +0.002 A 
ATOM     31  C   UNL     1     -29.003 -13.207  21.464  0.00  0.00    +0.029 A 
ENDBRANCH  23  26
ENDBRANCH  12  23
TORSDOF 3
ENDMDL
MODEL 7
REMARK VINA RESULT:    -4.467      3.102      7.937
REMARK INTER + INTRA:          -5.159
REMARK INTER:                  -5.179
REMARK INTRA:                   0.020
REMARK UNBOUND:                 0.091
REMARK  Name = 
REMARK  5 active torsions:
REMARK  status: ('A' for Active; 'I' for Inactive)
REMARK    1  A    between atoms: C_1  and  C_2
REMARK    2  A    between atoms: C_6  and  N_7
REMARK    3  A    between atoms: N_18  and  S_19
REMARK    4  A    between atoms: S_19  and  C_22
REMARK    5  A    between atoms: C_28  and  C_29
REMARK                            x       y       z     vdW  Elec       q    Type
REMARK                         _______ _______ _______ _____ _____    ______ ____
ROOT
ATOM      1  N   UNL     1     -31.874 -13.113  17.379  0.00  0.00    -0.296 N 
ATOM      2  C   UNL     1     -31.061 -12.860  18.537  0.00  0.00    +0.165 A 
ATOM      3  N   UNL     1     -29.873 -13.515  18.675  0.00  0.00    -0.227 NA
ATOM      4  C   UNL     1     -29.092 -13.353  19.774  0.00  0.00    +0.091 A 
ATOM      5  C   UNL     1     -27.876 -14.034  19.892  0.00  0.00    +0.030 A 
ATOM      6  C   UNL     1     -27.091 -13.860  21.038  0.00  0.00    +0.002 A 
ATOM      7  C   UNL     1     -27.519 -13.007  22.061  0.00  0.00    +0.002 A 
ATOM      8  C   UNL     1     -28.734 -12.323  21.946  0.00  0.00    +0.030 A 
ATOM      9  C   UNL     1     -29.523 -12.498  20.803  0.00  0.00    +0.091 A 
ATOM     10  N   UNL     1     -30.702 -11.843  20.670  0.00  0.00    -0.226 NA
ATOM     11  C   UNL     1     -31.488 -11.989  19.566  0.00  0.00    +0.179 A 
ATOM     12  N   UNL     1     -32.697 -11.222  19.455  0.00  0.00    -0.197 N 
ATOM     13  H   UNL     1     -32.912 -13.047  17.465  0.00  0.00    +0.154 HD
ATOM     14  H   UNL     1     -33.222 -11.168  18.557  0.00  0.00    +0.175 HD
ENDROOT
BRANCH   1  20
ATOM     15  C   UNL     1     -31.553 -12.916  12.348  0.00  0.00    +0.044 C 
ATOM     16  C   UNL     1     -31.138 -13.460  13.692  0.00  0.00    -0.046 A 
ATOM     17  C   UNL     1     -30.101 -14.405  13.743  0.00  0.00    +0.004 A 
ATOM     18  C   UNL     1     -29.674 -14.925  14.961  0.00  0.00    +0.002 A 
ATOM     19  C   UNL     1     -30.270 -14.507  16.149  0.00  0.00    +0.023 A 
ATOM     20  C   UNL     1     -31.321 -13.577  16.133  0.00  0.00    +0.036 A 
ATOM     21  C   UNL     1     -31.786 -13.065  14.893  0.00  0.00    -0.026 A 
ATOM     22  C   UNL     1     -32.938 -12.085  14.870  0.00  0.00    +0.046 C 
ENDBRANCH   1  20
BRANCH  12  23
ATOM     23  S   UNL     1     -33.260 -10.224  20.756  0.00  0.00    +0.074 S 
ATOM     24  O   UNL     1     -33.050 -10.938  22.062  0.00  0.00    -0.150 OA
ATOM     25  O   UNL     1     -34.730  -9.964  20.586  0.00  0.00    -0.150 OA
BRANCH  23  26
ATOM     26  C   UNL     1     -32.398  -8.689  20.739  0.00  0.00    +0.109 A 
ATOM     27  C   UNL     1     -31.329  -8.482  21.623  0.00  0.00    +0.029 A 
ATOM     28  C   UNL     1     -30.655  -7.258  21.636  0.00  0.00    +0.002 A 
ATOM     29  C   UNL     1     -31.049  -6.232  20.771  0.00  0.00    +0.000 A 
ATOM     30  C   UNL     1     -32.117  -6.432  19.892  0.00  0.00    +0.002 A 
ATOM     31  C   UNL     1     -32.791  -7.657  19.873  0.00  0.00    +0.029 A 
ENDBRANCH  23  26
ENDBRANCH  12  23
TORSDOF 3
ENDMDL
MODEL 8
REMARK VINA RESULT:    -4.455      2.092      6.049
REMARK INTER + INTRA:          -5.145
REMARK INTER:                  -4.958
REMARK INTRA:                  -0.187
REMARK UNBOUND:                 0.091
REMARK  Name = 
REMARK  5 active torsions:
REMARK  status: ('A' for Active; 'I' for Inactive)
REMARK    1  A    between atoms: C_1  and  C_2
REMARK    2  A    between atoms: C_6  and  N_7
REMARK    3  A    between atoms: N_18  and  S_19
REMARK    4  A    between atoms: S_19  and  C_22
REMARK    5  A    between atoms: C_28  and  C_29
REMARK                            x       y       z     vdW  Elec       q    Type
REMARK                         _______ _______ _______ _____ _____    ______ ____
ROOT
ATOM      1  N   UNL     1     -31.343  -9.151  18.466  0.00  0.00    -0.296 N 
ATOM      2  C   UNL     1     -30.721 -10.388  18.851  0.00  0.00    +0.165 A 
ATOM      3  N   UNL     1     -30.087 -10.472  20.055  0.00  0.00    -0.227 NA
ATOM      4  C   UNL     1     -29.438 -11.598  20.444  0.00  0.00    +0.091 A 
ATOM      5  C   UNL     1     -28.796 -11.661  21.685  0.00  0.00    +0.030 A 
ATOM      6  C   UNL     1     -28.125 -12.829  22.062  0.00  0.00    +0.002 A 
ATOM      7  C   UNL     1     -28.097 -13.934  21.203  0.00  0.00    +0.002 A 
ATOM      8  C   UNL     1     -28.740 -13.876  19.961  0.00  0.00    +0.030 A 
ATOM      9  C   UNL     1     -29.408 -12.708  19.580  0.00  0.00    +0.091 A 
ATOM     10  N   UNL     1     -30.040 -12.631  18.383  0.00  0.00    -0.226 NA
ATOM     11  C   UNL     1     -30.703 -11.508  17.988  0.00  0.00    +0.179 A 
ATOM     12  N   UNL     1     -31.404 -11.509  16.734  0.00  0.00    -0.197 N 
ATOM     13  H   UNL     1     -31.384  -8.898  17.455  0.00  0.00    +0.154 HD
ATOM     14  H   UNL     1     -32.068 -10.745  16.487  0.00  0.00    +0.175 HD
ENDROOT
BRANCH   1  20
ATOM     15  C   UNL     1     -35.060  -6.589  20.719  0.00  0.00    +0.044 C 
ATOM     16  C   UNL     1     -33.609  -6.964  20.549  0.00  0.00    -0.046 A 
ATOM     17  C   UNL     1     -32.665  -6.410  21.429  0.00  0.00    +0.004 A 
ATOM     18  C   UNL     1     -31.316  -6.738  21.322  0.00  0.00    +0.002 A 
ATOM     19  C   UNL     1     -30.889  -7.627  20.338  0.00  0.00    +0.023 A 
ATOM     20  C   UNL     1     -31.803  -8.184  19.430  0.00  0.00    +0.036 A 
ATOM     21  C   UNL     1     -33.175  -7.832  19.512  0.00  0.00    -0.026 A 
ATOM     22  C   UNL     1     -34.159  -8.408  18.517  0.00  0.00    +0.046 C 
ENDBRANCH   1  20
BRANCH  12  23
ATOM     23  S   UNL     1     -31.306 -12.850  15.641  0.00  0.00    +0.074 S 
ATOM     24  O   UNL     1     -31.685 -14.113  16.363  0.00  0.00    -0.150 OA
ATOM     25  O   UNL     1     -29.894 -12.989  15.146  0.00  0.00    -0.150 OA
BRANCH  23  26
ATOM     26  C   UNL     1     -32.373 -12.574  14.268  0.00  0.00    +0.109 A 
ATOM     27  C   UNL     1     -32.123 -13.224  13.052  0.00  0.00    +0.029 A 
ATOM     28  C   UNL     1     -32.949 -12.992  11.948  0.00  0.00    +0.002 A 
ATOM     29  C   UNL     1     -34.024 -12.105  12.053  0.00  0.00    +0.000 A 
ATOM     30  C   UNL     1     -34.276 -11.451  13.262  0.00  0.00    +0.002 A 
ATOM     31  C   UNL     1     -33.453 -11.684  14.369  0.00  0.00    +0.029 A 
ENDBRANCH  23  26
ENDBRANCH  12  23
TORSDOF 3
ENDMDL
MODEL 9
REMARK VINA RESULT:    -4.224      1.895      2.400
REMARK INTER + INTRA:          -4.874
REMARK INTER:                  -4.997
REMARK INTRA:                   0.123
REMARK UNBOUND:                 0.091
REMARK  Name = 
REMARK  5 active torsions:
REMARK  status: ('A' for Active; 'I' for Inactive)
REMARK    1  A    between atoms: C_1  and  C_2
REMARK    2  A    between atoms: C_6  and  N_7
REMARK    3  A    between atoms: N_18  and  S_19
REMARK    4  A    between atoms: S_19  and  C_22
REMARK    5  A    between atoms: C_28  and  C_29
REMARK                            x       y       z     vdW  Elec       q    Type
REMARK                         _______ _______ _______ _____ _____    ______ ____
ROOT
ATOM      1  N   UNL     1     -31.148  -8.733  20.340  0.00  0.00    -0.296 N 
ATOM      2  C   UNL     1     -31.264  -9.303  19.025  0.00  0.00    +0.165 A 
ATOM      3  N   UNL     1     -32.302  -8.929  18.224  0.00  0.00    -0.227 NA
ATOM      4  C   UNL     1     -32.489  -9.475  16.995  0.00  0.00    +0.091 A 
ATOM      5  C   UNL     1     -33.560  -9.073  16.191  0.00  0.00    +0.030 A 
ATOM      6  C   UNL     1     -33.740  -9.656  14.931  0.00  0.00    +0.002 A 
ATOM      7  C   UNL     1     -32.849 -10.636  14.475  0.00  0.00    +0.002 A 
ATOM      8  C   UNL     1     -31.776 -11.039  15.277  0.00  0.00    +0.030 A 
ATOM      9  C   UNL     1     -31.596 -10.460  16.538  0.00  0.00    +0.091 A 
ATOM     10  N   UNL     1     -30.561 -10.833  17.329  0.00  0.00    -0.226 NA
ATOM     11  C   UNL     1     -30.358 -10.284  18.559  0.00  0.00    +0.179 A 
ATOM     12  N   UNL     1     -29.209 -10.676  19.326  0.00  0.00    -0.197 N 
ATOM     13  H   UNL     1     -30.724  -9.305  21.103  0.00  0.00    +0.154 HD
ATOM     14  H   UNL     1     -28.922 -10.150  20.178  0.00  0.00    +0.175 HD
ENDROOT
BRANCH   1  20
ATOM     15  C   UNL     1     -34.940  -5.886  22.060  0.00  0.00    +0.044 C 
ATOM     16  C   UNL     1     -33.534  -6.068  21.545  0.00  0.00    -0.046 A 
ATOM     17  C   UNL     1     -32.696  -4.944  21.470  0.00  0.00    +0.004 A 
ATOM     18  C   UNL     1     -31.386  -5.064  21.015  0.00  0.00    +0.002 A 
ATOM     19  C   UNL     1     -30.890  -6.309  20.632  0.00  0.00    +0.023 A 
ATOM     20  C   UNL     1     -31.706  -7.449  20.678  0.00  0.00    +0.036 A 
ATOM     21  C   UNL     1     -33.053  -7.331  21.110  0.00  0.00    -0.026 A 
ATOM     22  C   UNL     1     -33.944  -8.553  21.132  0.00  0.00    +0.046 C 
ENDBRANCH   1  20
BRANCH  12  23
ATOM     23  S   UNL     1     -28.151 -11.941  18.791  0.00  0.00    +0.074 S 
ATOM     24  O   UNL     1     -27.529 -12.612  19.983  0.00  0.00    -0.150 OA
ATOM     25  O   UNL     1     -27.054 -11.352  17.949  0.00  0.00    -0.150 OA
BRANCH  23  26
ATOM     26  C   UNL     1     -29.057 -13.102  17.825  0.00  0.00    +0.109 A 
ATOM     27  C   UNL     1     -28.643 -13.393  16.519  0.00  0.00    +0.029 A 
ATOM     28  C   UNL     1     -29.370 -14.293  15.735  0.00  0.00    +0.002 A 
ATOM     29  C   UNL     1     -30.518 -14.902  16.251  0.00  0.00    +0.000 A 
ATOM     30  C   UNL     1     -30.938 -14.612  17.552  0.00  0.00    +0.002 A 
ATOM     31  C   UNL     1     -30.211 -13.714  18.340  0.00  0.00    +0.029 A 
ENDBRANCH  23  26
ENDBRANCH  12  23
TORSDOF 3
ENDMDL
