MODEL 1
REMARK VINA RESULT:     2.788      0.000      0.000
REMARK INTER + INTRA:           2.948
REMARK INTER:                   3.602
REMARK INTRA:                  -0.654
REMARK UNBOUND:                -0.654
REMARK  Name = 
REMARK  5 active torsions:
REMARK  status: ('A' for Active; 'I' for Inactive)
REMARK    1  A    between atoms: C_2  and  C_15
REMARK    2  A    between atoms: N_3  and  C_4
REMARK    3  A    between atoms: C_18  and  N_21
REMARK    4  A    between atoms: N_21  and  S_22
REMARK    5  A    between atoms: S_22  and  C_25
REMARK                            x       y       z     vdW  Elec       q    Type
REMARK                         _______ _______ _______ _____ _____    ______ ____
ROOT
ATOM      1  C   UNL     1     -31.046 -10.355  18.815  0.00  0.00    +0.037 A 
ATOM      2  C   UNL     1     -30.245  -9.227  19.061  0.00  0.00    +0.015 A 
ATOM      3  C   UNL     1     -30.639  -8.266  19.996  0.00  0.00    +0.025 A 
ATOM      4  C   UNL     1     -31.845  -8.411  20.705  0.00  0.00    +0.048 A 
ATOM      5  C   UNL     1     -32.653  -9.528  20.445  0.00  0.00    +0.025 A 
ATOM      6  C   UNL     1     -32.260 -10.488  19.508  0.00  0.00    +0.015 A 
ENDROOT
BRANCH   1   8
ATOM      7  O   UNL     1     -29.922 -12.341  18.187  0.00  0.00    -0.270 OA
ATOM      8  C   UNL     1     -30.651 -11.380  17.819  0.00  0.00    +0.248 C 
ATOM      9  N   UNL     1     -31.091 -11.297  16.450  0.00  0.00    -0.280 N 
ATOM     10  H   UNL     1     -31.726 -10.520  16.163  0.00  0.00    +0.155 HD
BRANCH   9  11
ATOM     11  C   UNL     1     -30.732 -12.260  15.445  0.00  0.00    +0.056 A 
ATOM     12  C   UNL     1     -29.381 -12.556  15.187  0.00  0.00    +0.074 A 
ATOM     13  C   UNL     1     -29.040 -13.480  14.195  0.00  0.00    +0.164 A 
ATOM     14  O   UNL     1     -27.703 -13.810  13.955  0.00  0.00    -0.485 OA
ATOM     15  C   UNL     1     -27.355 -14.940  13.151  0.00  0.00    +0.270 C 
ATOM     16  C   UNL     1     -28.316 -15.062  11.963  0.00  0.00    +0.270 C 
ATOM     17  O   UNL     1     -29.671 -14.974  12.410  0.00  0.00    -0.485 OA
ATOM     18  C   UNL     1     -30.040 -14.086  13.425  0.00  0.00    +0.164 A 
ATOM     19  C   UNL     1     -31.384 -13.798  13.671  0.00  0.00    +0.071 A 
ATOM     20  C   UNL     1     -31.735 -12.882  14.670  0.00  0.00    +0.066 A 
ATOM     21 CL   UNL     1     -33.439 -12.554  14.955  0.00  0.00    -0.081 Cl
ENDBRANCH   9  11
ENDBRANCH   1   8
BRANCH   4  22
ATOM     22  N   UNL     1     -32.281  -7.444  21.678  0.00  0.00    -0.216 N 
ATOM     23  H   UNL     1     -31.749  -7.350  22.572  0.00  0.00    +0.174 HD
BRANCH  22  24
ATOM     24  S   UNL     1     -33.589  -6.332  21.424  0.00  0.00    +0.079 S 
ATOM     25  O   UNL     1     -33.250  -5.013  22.058  0.00  0.00    -0.149 OA
ATOM     26  O   UNL     1     -34.836  -6.878  22.062  0.00  0.00    -0.149 OA
BRANCH  24  27
ATOM     27  C   UNL     1     -33.841  -6.085  19.706  0.00  0.00    +0.146 A 
ATOM     28  C   UNL     1     -33.374  -5.009  18.968  0.00  0.00    +0.036 A 
ATOM     29  C   UNL     1     -33.724  -5.086  17.614  0.00  0.00    +0.010 A 
ATOM     30  C   UNL     1     -34.464  -6.218  17.293  0.00  0.00    +0.047 A 
ATOM     31  S   UNL     1     -34.682  -7.126  18.693  0.00  0.00    -0.077 S 
ENDBRANCH  24  27
ENDBRANCH  22  24
ENDBRANCH   4  22
TORSDOF 5
ENDMDL
