MODEL 1
REMARK VINA RESULT:    -4.732      0.000      0.000
REMARK INTER + INTRA:          -7.267
REMARK INTER:                  -6.115
REMARK INTRA:                  -1.152
REMARK UNBOUND:                -1.152
REMARK  Name = 
REMARK  5 active torsions:
REMARK  status: ('A' for Active; 'I' for Inactive)
REMARK    1  A    between atoms: C_2  and  C_21
REMARK    2  A    between atoms: N_3  and  C_4
REMARK    3  A    between atoms: C_8  and  S_10
REMARK    4  A    between atoms: S_10  and  N_13
REMARK    5  A    between atoms: N_13  and  C_14
REMARK                            x       y       z     vdW  Elec       q    Type
REMARK                         _______ _______ _______ _____ _____    ______ ____
ROOT
ATOM      1  C   UNL     1     -30.062 -13.840  16.524  0.00  0.00    +0.036 A 
ATOM      2  C   UNL     1     -29.470 -14.377  15.371  0.00  0.00    +0.023 A 
ATOM      3  C   UNL     1     -30.041 -14.158  14.114  0.00  0.00    +0.004 A 
ATOM      4  C   UNL     1     -31.198 -13.383  13.996  0.00  0.00    +0.029 A 
ATOM      5  C   UNL     1     -31.784 -12.816  15.133  0.00  0.00    +0.110 A 
ATOM      6  C   UNL     1     -31.216 -13.045  16.395  0.00  0.00    +0.052 A 
ENDROOT
BRANCH   1   9
ATOM      7  O   UNL     1     -28.625 -11.876  18.054  0.00  0.00    -0.270 OA
ATOM      8  C   UNL     1     -28.660 -13.058  18.491  0.00  0.00    +0.248 C 
ATOM      9  N   UNL     1     -29.439 -14.055  17.802  0.00  0.00    -0.281 N 
ATOM     10  H   UNL     1     -29.603 -14.980  18.255  0.00  0.00    +0.155 HD
BRANCH   8  11
ATOM     11  C   UNL     1     -27.897 -13.389  19.719  0.00  0.00    +0.040 A 
ATOM     12  C   UNL     1     -26.491 -13.419  19.730  0.00  0.00    +0.033 A 
ATOM     13  C   UNL     1     -25.815 -13.741  20.910  0.00  0.00    +0.111 A 
ATOM     14  N   UNL     1     -26.512 -14.030  22.040  0.00  0.00    -0.263 NA
ATOM     15  C   UNL     1     -27.870 -14.018  22.061  0.00  0.00    +0.111 A 
ATOM     16  C   UNL     1     -28.586 -13.705  20.903  0.00  0.00    +0.033 A 
ENDBRANCH   8  11
ENDBRANCH   1   9
BRANCH   5  17
ATOM     17  S   UNL     1     -33.218 -11.804  14.984  0.00  0.00    +0.072 S 
ATOM     18  O   UNL     1     -34.254 -12.292  15.959  0.00  0.00    -0.150 OA
ATOM     19  O   UNL     1     -33.779 -11.882  13.591  0.00  0.00    -0.150 OA
BRANCH  17  20
ATOM     20  N   UNL     1     -32.827 -10.151  15.346  0.00  0.00    -0.213 N 
ATOM     21  H   UNL     1     -32.856  -9.479  14.548  0.00  0.00    +0.174 HD
BRANCH  20  22
ATOM     22  C   UNL     1     -32.597  -9.657  16.679  0.00  0.00    +0.083 A 
ATOM     23  C   UNL     1     -33.663  -9.336  17.543  0.00  0.00    +0.027 A 
ATOM     24  C   UNL     1     -33.410  -8.849  18.828  0.00  0.00    +0.002 A 
ATOM     25  C   UNL     1     -32.098  -8.680  19.269  0.00  0.00    +0.003 A 
ATOM     26  C   UNL     1     -31.032  -9.002  18.426  0.00  0.00    +0.040 A 
ATOM     27  C   UNL     1     -31.277  -9.490  17.138  0.00  0.00    +0.146 A 
ATOM     28  F   UNL     1     -30.225  -9.789  16.335  0.00  0.00    -0.204 F 
ENDBRANCH  20  22
ENDBRANCH  17  20
ENDBRANCH   5  17
TORSDOF 5
ENDMDL
MODEL 2
REMARK VINA RESULT:    -4.587      2.436      3.073
REMARK INTER + INTRA:          -7.080
REMARK INTER:                  -6.321
REMARK INTRA:                  -0.759
REMARK UNBOUND:                -1.152
REMARK  Name = 
REMARK  5 active torsions:
REMARK  status: ('A' for Active; 'I' for Inactive)
REMARK    1  A    between atoms: C_2  and  C_21
REMARK    2  A    between atoms: N_3  and  C_4
REMARK    3  A    between atoms: C_8  and  S_10
REMARK    4  A    between atoms: S_10  and  N_13
REMARK    5  A    between atoms: N_13  and  C_14
REMARK                            x       y       z     vdW  Elec       q    Type
REMARK                         _______ _______ _______ _____ _____    ______ ____
ROOT
ATOM      1  C   UNL     1     -29.700 -14.184  15.790  0.00  0.00    +0.036 A 
ATOM      2  C   UNL     1     -28.703 -14.794  15.013  0.00  0.00    +0.023 A 
ATOM      3  C   UNL     1     -28.837 -14.870  13.624  0.00  0.00    +0.004 A 
ATOM      4  C   UNL     1     -29.958 -14.320  12.996  0.00  0.00    +0.029 A 
ATOM      5  C   UNL     1     -30.946 -13.682  13.755  0.00  0.00    +0.110 A 
ATOM      6  C   UNL     1     -30.816 -13.615  15.150  0.00  0.00    +0.052 A 
ENDROOT
BRANCH   1   9
ATOM      7  O   UNL     1     -29.188 -11.778  17.278  0.00  0.00    -0.270 OA
ATOM      8  C   UNL     1     -29.189 -12.873  17.904  0.00  0.00    +0.248 C 
ATOM      9  N   UNL     1     -29.524 -14.092  17.215  0.00  0.00    -0.281 N 
ATOM     10  H   UNL     1     -29.691 -14.963  17.765  0.00  0.00    +0.155 HD
BRANCH   8  11
ATOM     11  C   UNL     1     -28.851 -12.871  19.348  0.00  0.00    +0.040 A 
ATOM     12  C   UNL     1     -29.592 -12.123  20.280  0.00  0.00    +0.033 A 
ATOM     13  C   UNL     1     -29.233 -12.149  21.630  0.00  0.00    +0.111 A 
ATOM     14  N   UNL     1     -28.170 -12.888  22.041  0.00  0.00    -0.263 NA
ATOM     15  C   UNL     1     -27.428 -13.614  21.165  0.00  0.00    +0.111 A 
ATOM     16  C   UNL     1     -27.749 -13.615  19.806  0.00  0.00    +0.033 A 
ENDBRANCH   8  11
ENDBRANCH   1   9
BRANCH   5  17
ATOM     17  S   UNL     1     -32.339 -12.950  12.965  0.00  0.00    +0.072 S 
ATOM     18  O   UNL     1     -32.957 -13.964  12.043  0.00  0.00    -0.150 OA
ATOM     19  O   UNL     1     -31.923 -11.747  12.165  0.00  0.00    -0.150 OA
BRANCH  17  20
ATOM     20  N   UNL     1     -33.514 -12.464  14.148  0.00  0.00    -0.213 N 
ATOM     21  H   UNL     1     -33.883 -13.213  14.775  0.00  0.00    +0.174 HD
BRANCH  20  22
ATOM     22  C   UNL     1     -33.897 -11.095  14.381  0.00  0.00    +0.083 A 
ATOM     23  C   UNL     1     -33.511 -10.409  15.550  0.00  0.00    +0.027 A 
ATOM     24  C   UNL     1     -33.905  -9.084  15.755  0.00  0.00    +0.002 A 
ATOM     25  C   UNL     1     -34.681  -8.427  14.800  0.00  0.00    +0.003 A 
ATOM     26  C   UNL     1     -35.062  -9.093  13.633  0.00  0.00    +0.040 A 
ATOM     27  C   UNL     1     -34.672 -10.419  13.421  0.00  0.00    +0.146 A 
ATOM     28  F   UNL     1     -35.062 -11.047  12.283  0.00  0.00    -0.204 F 
ENDBRANCH  20  22
ENDBRANCH  17  20
ENDBRANCH   5  17
TORSDOF 5
ENDMDL
MODEL 3
REMARK VINA RESULT:    -4.506      3.179      7.363
REMARK INTER + INTRA:          -6.976
REMARK INTER:                  -5.913
REMARK INTRA:                  -1.062
REMARK UNBOUND:                -1.152
REMARK  Name = 
REMARK  5 active torsions:
REMARK  status: ('A' for Active; 'I' for Inactive)
REMARK    1  A    between atoms: C_2  and  C_21
REMARK    2  A    between atoms: N_3  and  C_4
REMARK    3  A    between atoms: C_8  and  S_10
REMARK    4  A    between atoms: S_10  and  N_13
REMARK    5  A    between atoms: N_13  and  C_14
REMARK                            x       y       z     vdW  Elec       q    Type
REMARK                         _______ _______ _______ _____ _____    ______ ____
ROOT
ATOM      1  C   UNL     1     -33.415  -9.115  16.762  0.00  0.00    +0.036 A 
ATOM      2  C   UNL     1     -34.542  -8.284  16.857  0.00  0.00    +0.023 A 
ATOM      3  C   UNL     1     -34.765  -7.525  18.008  0.00  0.00    +0.004 A 
ATOM      4  C   UNL     1     -33.855  -7.573  19.067  0.00  0.00    +0.029 A 
ATOM      5  C   UNL     1     -32.711  -8.374  18.975  0.00  0.00    +0.110 A 
ATOM      6  C   UNL     1     -32.493  -9.144  17.823  0.00  0.00    +0.052 A 
ENDROOT
BRANCH   1   9
ATOM      7  O   UNL     1     -34.475 -11.722  16.169  0.00  0.00    -0.270 OA
ATOM      8  C   UNL     1     -33.680 -11.202  15.339  0.00  0.00    +0.248 C 
ATOM      9  N   UNL     1     -33.192  -9.864  15.554  0.00  0.00    -0.281 N 
ATOM     10  H   UNL     1     -32.677  -9.378  14.789  0.00  0.00    +0.155 HD
BRANCH   8  11
ATOM     11  C   UNL     1     -33.274 -11.989  14.149  0.00  0.00    +0.040 A 
ATOM     12  C   UNL     1     -34.120 -12.135  13.035  0.00  0.00    +0.033 A 
ATOM     13  C   UNL     1     -33.696 -12.890  11.938  0.00  0.00    +0.111 A 
ATOM     14  N   UNL     1     -32.475 -13.485  11.949  0.00  0.00    -0.263 NA
ATOM     15  C   UNL     1     -31.638 -13.371  13.012  0.00  0.00    +0.111 A 
ATOM     16  C   UNL     1     -32.022 -12.629  14.131  0.00  0.00    +0.033 A 
ENDBRANCH   8  11
ENDBRANCH   1   9
BRANCH   5  17
ATOM     17  S   UNL     1     -31.539  -8.406  20.289  0.00  0.00    +0.072 S 
ATOM     18  O   UNL     1     -31.763  -7.202  21.163  0.00  0.00    -0.150 OA
ATOM     19  O   UNL     1     -30.136  -8.365  19.750  0.00  0.00    -0.150 OA
BRANCH  17  20
ATOM     20  N   UNL     1     -31.740  -9.845  21.240  0.00  0.00    -0.213 N 
ATOM     21  H   UNL     1     -32.560  -9.869  21.885  0.00  0.00    +0.174 HD
BRANCH  20  22
ATOM     22  C   UNL     1     -30.924 -11.023  21.090  0.00  0.00    +0.083 A 
ATOM     23  C   UNL     1     -29.668 -11.136  21.718  0.00  0.00    +0.027 A 
ATOM     24  C   UNL     1     -28.893 -12.287  21.549  0.00  0.00    +0.002 A 
ATOM     25  C   UNL     1     -29.360 -13.337  20.758  0.00  0.00    +0.003 A 
ATOM     26  C   UNL     1     -30.608 -13.241  20.138  0.00  0.00    +0.040 A 
ATOM     27  C   UNL     1     -31.389 -12.093  20.303  0.00  0.00    +0.146 A 
ATOM     28  F   UNL     1     -32.594 -12.020  19.683  0.00  0.00    -0.204 F 
ENDBRANCH  20  22
ENDBRANCH  17  20
ENDBRANCH   5  17
TORSDOF 5
ENDMDL
MODEL 4
REMARK VINA RESULT:    -4.408      2.375      4.779
REMARK INTER + INTRA:          -6.849
REMARK INTER:                  -5.828
REMARK INTRA:                  -1.021
REMARK UNBOUND:                -1.152
REMARK  Name = 
REMARK  5 active torsions:
REMARK  status: ('A' for Active; 'I' for Inactive)
REMARK    1  A    between atoms: C_2  and  C_21
REMARK    2  A    between atoms: N_3  and  C_4
REMARK    3  A    between atoms: C_8  and  S_10
REMARK    4  A    between atoms: S_10  and  N_13
REMARK    5  A    between atoms: N_13  and  C_14
REMARK                            x       y       z     vdW  Elec       q    Type
REMARK                         _______ _______ _______ _____ _____    ______ ____
ROOT
ATOM      1  C   UNL     1     -30.765  -8.940  20.258  0.00  0.00    +0.036 A 
ATOM      2  C   UNL     1     -30.590  -7.670  20.830  0.00  0.00    +0.023 A 
ATOM      3  C   UNL     1     -31.433  -6.613  20.477  0.00  0.00    +0.004 A 
ATOM      4  C   UNL     1     -32.472  -6.820  19.566  0.00  0.00    +0.029 A 
ATOM      5  C   UNL     1     -32.678  -8.087  19.010  0.00  0.00    +0.110 A 
ATOM      6  C   UNL     1     -31.824  -9.145  19.356  0.00  0.00    +0.052 A 
ENDROOT
BRANCH   1   9
ATOM      7  O   UNL     1     -29.174 -10.572  18.506  0.00  0.00    -0.270 OA
ATOM      8  C   UNL     1     -29.187 -10.859  19.734  0.00  0.00    +0.248 C 
ATOM      9  N   UNL     1     -29.902 -10.018  20.659  0.00  0.00    -0.281 N 
ATOM     10  H   UNL     1     -29.772 -10.159  21.685  0.00  0.00    +0.155 HD
BRANCH   8  11
ATOM     11  C   UNL     1     -28.452 -12.062  20.196  0.00  0.00    +0.040 A 
ATOM     12  C   UNL     1     -28.895 -12.824  21.292  0.00  0.00    +0.033 A 
ATOM     13  C   UNL     1     -28.168 -13.947  21.694  0.00  0.00    +0.111 A 
ATOM     14  N   UNL     1     -27.035 -14.300  21.033  0.00  0.00    -0.263 NA
ATOM     15  C   UNL     1     -26.575 -13.581  19.976  0.00  0.00    +0.111 A 
ATOM     16  C   UNL     1     -27.269 -12.449  19.543  0.00  0.00    +0.033 A 
ENDBRANCH   8  11
ENDBRANCH   1   9
BRANCH   5  17
ATOM     17  S   UNL     1     -34.012  -8.363  17.894  0.00  0.00    +0.072 S 
ATOM     18  O   UNL     1     -34.964  -7.202  17.987  0.00  0.00    -0.150 OA
ATOM     19  O   UNL     1     -34.745  -9.628  18.245  0.00  0.00    -0.150 OA
BRANCH  17  20
ATOM     20  N   UNL     1     -33.419  -8.485  16.266  0.00  0.00    -0.213 N 
ATOM     21  H   UNL     1     -33.196  -7.587  15.782  0.00  0.00    +0.174 HD
BRANCH  20  22
ATOM     22  C   UNL     1     -33.109  -9.733  15.618  0.00  0.00    +0.083 A 
ATOM     23  C   UNL     1     -34.105 -10.502  14.984  0.00  0.00    +0.027 A 
ATOM     24  C   UNL     1     -33.778 -11.715  14.371  0.00  0.00    +0.002 A 
ATOM     25  C   UNL     1     -32.460 -12.173  14.378  0.00  0.00    +0.003 A 
ATOM     26  C   UNL     1     -31.463 -11.415  14.996  0.00  0.00    +0.040 A 
ATOM     27  C   UNL     1     -31.782 -10.201  15.612  0.00  0.00    +0.146 A 
ATOM     28  F   UNL     1     -30.797  -9.487  16.212  0.00  0.00    -0.204 F 
ENDBRANCH  20  22
ENDBRANCH  17  20
ENDBRANCH   5  17
TORSDOF 5
ENDMDL
MODEL 5
REMARK VINA RESULT:    -4.407      3.015      6.158
REMARK INTER + INTRA:          -6.847
REMARK INTER:                  -5.731
REMARK INTRA:                  -1.116
REMARK UNBOUND:                -1.152
REMARK  Name = 
REMARK  5 active torsions:
REMARK  status: ('A' for Active; 'I' for Inactive)
REMARK    1  A    between atoms: C_2  and  C_21
REMARK    2  A    between atoms: N_3  and  C_4
REMARK    3  A    between atoms: C_8  and  S_10
REMARK    4  A    between atoms: S_10  and  N_13
REMARK    5  A    between atoms: N_13  and  C_14
REMARK                            x       y       z     vdW  Elec       q    Type
REMARK                         _______ _______ _______ _____ _____    ______ ____
ROOT
ATOM      1  C   UNL     1     -32.138 -10.168  16.372  0.00  0.00    +0.036 A 
ATOM      2  C   UNL     1     -33.328  -9.572  15.927  0.00  0.00    +0.023 A 
ATOM      3  C   UNL     1     -34.011  -8.663  16.739  0.00  0.00    +0.004 A 
ATOM      4  C   UNL     1     -33.501  -8.326  17.996  0.00  0.00    +0.029 A 
ATOM      5  C   UNL     1     -32.300  -8.890  18.441  0.00  0.00    +0.110 A 
ATOM      6  C   UNL     1     -31.621  -9.809  17.630  0.00  0.00    +0.052 A 
ENDROOT
BRANCH   1   9
ATOM      7  O   UNL     1     -32.491 -13.020  16.275  0.00  0.00    -0.270 OA
ATOM      8  C   UNL     1     -31.593 -12.509  15.552  0.00  0.00    +0.248 C 
ATOM      9  N   UNL     1     -31.438 -11.078  15.505  0.00  0.00    -0.281 N 
ATOM     10  H   UNL     1     -30.816 -10.653  14.783  0.00  0.00    +0.155 HD
BRANCH   8  11
ATOM     11  C   UNL     1     -30.719 -13.406  14.756  0.00  0.00    +0.040 A 
ATOM     12  C   UNL     1     -29.645 -14.100  15.340  0.00  0.00    +0.033 A 
ATOM     13  C   UNL     1     -28.846 -14.931  14.550  0.00  0.00    +0.111 A 
ATOM     14  N   UNL     1     -29.101 -15.062  13.222  0.00  0.00    -0.263 NA
ATOM     15  C   UNL     1     -30.125 -14.398  12.625  0.00  0.00    +0.111 A 
ATOM     16  C   UNL     1     -30.947 -13.556  13.377  0.00  0.00    +0.033 A 
ENDBRANCH   8  11
ENDBRANCH   1   9
BRANCH   5  17
ATOM     17  S   UNL     1     -31.632  -8.435  20.006  0.00  0.00    +0.072 S 
ATOM     18  O   UNL     1     -32.421  -7.276  20.548  0.00  0.00    -0.150 OA
ATOM     19  O   UNL     1     -30.191  -8.027  19.869  0.00  0.00    -0.150 OA
BRANCH  17  20
ATOM     20  N   UNL     1     -31.740  -9.767  21.116  0.00  0.00    -0.213 N 
ATOM     21  H   UNL     1     -32.508  -9.725  21.822  0.00  0.00    +0.174 HD
BRANCH  20  22
ATOM     22  C   UNL     1     -30.923 -10.950  21.028  0.00  0.00    +0.083 A 
ATOM     23  C   UNL     1     -29.634 -11.000  21.593  0.00  0.00    +0.027 A 
ATOM     24  C   UNL     1     -28.859 -12.159  21.485  0.00  0.00    +0.002 A 
ATOM     25  C   UNL     1     -29.359 -13.278  20.820  0.00  0.00    +0.003 A 
ATOM     26  C   UNL     1     -30.640 -13.244  20.264  0.00  0.00    +0.040 A 
ATOM     27  C   UNL     1     -31.421 -12.089  20.368  0.00  0.00    +0.146 A 
ATOM     28  F   UNL     1     -32.659 -12.078  19.812  0.00  0.00    -0.204 F 
ENDBRANCH  20  22
ENDBRANCH  17  20
ENDBRANCH   5  17
TORSDOF 5
ENDMDL
MODEL 6
REMARK VINA RESULT:    -4.394      2.791      6.006
REMARK INTER + INTRA:          -6.830
REMARK INTER:                  -6.039
REMARK INTRA:                  -0.791
REMARK UNBOUND:                -1.152
REMARK  Name = 
REMARK  5 active torsions:
REMARK  status: ('A' for Active; 'I' for Inactive)
REMARK    1  A    between atoms: C_2  and  C_21
REMARK    2  A    between atoms: N_3  and  C_4
REMARK    3  A    between atoms: C_8  and  S_10
REMARK    4  A    between atoms: S_10  and  N_13
REMARK    5  A    between atoms: N_13  and  C_14
REMARK                            x       y       z     vdW  Elec       q    Type
REMARK                         _______ _______ _______ _____ _____    ______ ____
ROOT
ATOM      1  C   UNL     1     -32.317 -10.244  16.294  0.00  0.00    +0.036 A 
ATOM      2  C   UNL     1     -33.531  -9.630  15.951  0.00  0.00    +0.023 A 
ATOM      3  C   UNL     1     -34.122  -8.700  16.812  0.00  0.00    +0.004 A 
ATOM      4  C   UNL     1     -33.494  -8.360  18.013  0.00  0.00    +0.029 A 
ATOM      5  C   UNL     1     -32.268  -8.942  18.355  0.00  0.00    +0.110 A 
ATOM      6  C   UNL     1     -31.682  -9.883  17.496  0.00  0.00    +0.052 A 
ENDROOT
BRANCH   1   9
ATOM      7  O   UNL     1     -32.037 -13.076  16.704  0.00  0.00    -0.270 OA
ATOM      8  C   UNL     1     -31.526 -12.574  15.666  0.00  0.00    +0.248 C 
ATOM      9  N   UNL     1     -31.715 -11.175  15.378  0.00  0.00    -0.281 N 
ATOM     10  H   UNL     1     -31.441 -10.803  14.443  0.00  0.00    +0.155 HD
BRANCH   8  11
ATOM     11  C   UNL     1     -30.745 -13.449  14.758  0.00  0.00    +0.040 A 
ATOM     12  C   UNL     1     -29.668 -14.224  15.225  0.00  0.00    +0.033 A 
ATOM     13  C   UNL     1     -28.958 -15.031  14.331  0.00  0.00    +0.111 A 
ATOM     14  N   UNL     1     -29.301 -15.062  13.018  0.00  0.00    -0.263 NA
ATOM     15  C   UNL     1     -30.330 -14.319  12.534  0.00  0.00    +0.111 A 
ATOM     16  C   UNL     1     -31.065 -13.497  13.390  0.00  0.00    +0.033 A 
ENDBRANCH   8  11
ENDBRANCH   1   9
BRANCH   5  17
ATOM     17  S   UNL     1     -31.453  -8.485  19.848  0.00  0.00    +0.072 S 
ATOM     18  O   UNL     1     -32.258  -8.995  21.011  0.00  0.00    -0.150 OA
ATOM     19  O   UNL     1     -31.335  -6.990  19.951  0.00  0.00    -0.150 OA
BRANCH  17  20
ATOM     20  N   UNL     1     -29.864  -9.184  19.903  0.00  0.00    -0.213 N 
ATOM     21  H   UNL     1     -29.076  -8.536  20.126  0.00  0.00    +0.174 HD
BRANCH  20  22
ATOM     22  C   UNL     1     -29.606 -10.596  19.785  0.00  0.00    +0.083 A 
ATOM     23  C   UNL     1     -30.120 -11.521  20.716  0.00  0.00    +0.027 A 
ATOM     24  C   UNL     1     -29.846 -12.885  20.583  0.00  0.00    +0.002 A 
ATOM     25  C   UNL     1     -29.064 -13.343  19.522  0.00  0.00    +0.003 A 
ATOM     26  C   UNL     1     -28.556 -12.438  18.588  0.00  0.00    +0.040 A 
ATOM     27  C   UNL     1     -28.826 -11.072  18.715  0.00  0.00    +0.146 A 
ATOM     28  F   UNL     1     -28.315 -10.211  17.799  0.00  0.00    -0.204 F 
ENDBRANCH  20  22
ENDBRANCH  17  20
ENDBRANCH   5  17
TORSDOF 5
ENDMDL
MODEL 7
REMARK VINA RESULT:    -4.380      2.754      7.563
REMARK INTER + INTRA:          -6.812
REMARK INTER:                  -5.849
REMARK INTRA:                  -0.963
REMARK UNBOUND:                -1.152
REMARK  Name = 
REMARK  5 active torsions:
REMARK  status: ('A' for Active; 'I' for Inactive)
REMARK    1  A    between atoms: C_2  and  C_21
REMARK    2  A    between atoms: N_3  and  C_4
REMARK    3  A    between atoms: C_8  and  S_10
REMARK    4  A    between atoms: S_10  and  N_13
REMARK    5  A    between atoms: N_13  and  C_14
REMARK                            x       y       z     vdW  Elec       q    Type
REMARK                         _______ _______ _______ _____ _____    ______ ____
ROOT
ATOM      1  C   UNL     1     -31.209  -9.982  18.586  0.00  0.00    +0.036 A 
ATOM      2  C   UNL     1     -31.126  -9.293  19.805  0.00  0.00    +0.023 A 
ATOM      3  C   UNL     1     -30.360  -9.805  20.856  0.00  0.00    +0.004 A 
ATOM      4  C   UNL     1     -29.654 -11.000  20.692  0.00  0.00    +0.029 A 
ATOM      5  C   UNL     1     -29.704 -11.683  19.472  0.00  0.00    +0.110 A 
ATOM      6  C   UNL     1     -30.481 -11.174  18.422  0.00  0.00    +0.052 A 
ENDROOT
BRANCH   1   9
ATOM      7  O   UNL     1     -33.703 -11.001  17.581  0.00  0.00    -0.270 OA
ATOM      8  C   UNL     1     -33.184 -10.015  16.989  0.00  0.00    +0.248 C 
ATOM      9  N   UNL     1     -31.980  -9.420  17.510  0.00  0.00    -0.281 N 
ATOM     10  H   UNL     1     -31.651  -8.509  17.123  0.00  0.00    +0.155 HD
BRANCH   8  11
ATOM     11  C   UNL     1     -33.840  -9.487  15.768  0.00  0.00    +0.040 A 
ATOM     12  C   UNL     1     -33.974 -10.267  14.606  0.00  0.00    +0.033 A 
ATOM     13  C   UNL     1     -34.596  -9.726  13.477  0.00  0.00    +0.111 A 
ATOM     14  N   UNL     1     -35.062  -8.450  13.499  0.00  0.00    -0.263 NA
ATOM     15  C   UNL     1     -34.940  -7.668  14.603  0.00  0.00    +0.111 A 
ATOM     16  C   UNL     1     -34.323  -8.167  15.752  0.00  0.00    +0.033 A 
ENDBRANCH   8  11
ENDBRANCH   1   9
BRANCH   5  17
ATOM     17  S   UNL     1     -28.783 -13.167  19.247  0.00  0.00    +0.072 S 
ATOM     18  O   UNL     1     -28.426 -13.722  20.598  0.00  0.00    -0.150 OA
ATOM     19  O   UNL     1     -27.519 -12.895  18.479  0.00  0.00    -0.150 OA
BRANCH  17  20
ATOM     20  N   UNL     1     -29.730 -14.338  18.382  0.00  0.00    -0.213 N 
ATOM     21  H   UNL     1     -30.114 -15.132  18.939  0.00  0.00    +0.174 HD
BRANCH  20  22
ATOM     22  C   UNL     1     -30.105 -14.199  16.998  0.00  0.00    +0.083 A 
ATOM     23  C   UNL     1     -29.165 -14.351  15.959  0.00  0.00    +0.027 A 
ATOM     24  C   UNL     1     -29.555 -14.201  14.625  0.00  0.00    +0.002 A 
ATOM     25  C   UNL     1     -30.881 -13.905  14.311  0.00  0.00    +0.003 A 
ATOM     26  C   UNL     1     -31.825 -13.762  15.330  0.00  0.00    +0.040 A 
ATOM     27  C   UNL     1     -31.442 -13.909  16.667  0.00  0.00    +0.146 A 
ATOM     28  F   UNL     1     -32.375 -13.757  17.641  0.00  0.00    -0.204 F 
ENDBRANCH  20  22
ENDBRANCH  17  20
ENDBRANCH   5  17
TORSDOF 5
ENDMDL
MODEL 8
REMARK VINA RESULT:    -4.360      2.858      6.134
REMARK INTER + INTRA:          -6.787
REMARK INTER:                  -5.820
REMARK INTRA:                  -0.967
REMARK UNBOUND:                -1.152
REMARK  Name = 
REMARK  5 active torsions:
REMARK  status: ('A' for Active; 'I' for Inactive)
REMARK    1  A    between atoms: C_2  and  C_21
REMARK    2  A    between atoms: N_3  and  C_4
REMARK    3  A    between atoms: C_8  and  S_10
REMARK    4  A    between atoms: S_10  and  N_13
REMARK    5  A    between atoms: N_13  and  C_14
REMARK                            x       y       z     vdW  Elec       q    Type
REMARK                         _______ _______ _______ _____ _____    ______ ____
ROOT
ATOM      1  C   UNL     1     -31.247 -10.183  16.628  0.00  0.00    +0.036 A 
ATOM      2  C   UNL     1     -32.016 -10.216  15.455  0.00  0.00    +0.023 A 
ATOM      3  C   UNL     1     -32.026 -11.356  14.647  0.00  0.00    +0.004 A 
ATOM      4  C   UNL     1     -31.283 -12.481  15.013  0.00  0.00    +0.029 A 
ATOM      5  C   UNL     1     -30.534 -12.474  16.196  0.00  0.00    +0.110 A 
ATOM      6  C   UNL     1     -30.517 -11.326  17.001  0.00  0.00    +0.052 A 
ENDROOT
BRANCH   1   9
ATOM      7  O   UNL     1     -32.634  -9.920  19.132  0.00  0.00    -0.270 OA
ATOM      8  C   UNL     1     -32.055  -8.902  18.666  0.00  0.00    +0.248 C 
ATOM      9  N   UNL     1     -31.278  -9.009  17.458  0.00  0.00    -0.281 N 
ATOM     10  H   UNL     1     -30.666  -8.214  17.170  0.00  0.00    +0.155 HD
BRANCH   8  11
ATOM     11  C   UNL     1     -32.185  -7.612  19.387  0.00  0.00    +0.040 A 
ATOM     12  C   UNL     1     -33.268  -6.744  19.158  0.00  0.00    +0.033 A 
ATOM     13  C   UNL     1     -33.347  -5.537  19.857  0.00  0.00    +0.111 A 
ATOM     14  N   UNL     1     -32.380  -5.199  20.749  0.00  0.00    -0.263 NA
ATOM     15  C   UNL     1     -31.317  -6.010  20.986  0.00  0.00    +0.111 A 
ATOM     16  C   UNL     1     -31.196  -7.225  20.308  0.00  0.00    +0.033 A 
ENDBRANCH   8  11
ENDBRANCH   1   9
BRANCH   5  17
ATOM     17  S   UNL     1     -29.630 -13.905  16.684  0.00  0.00    +0.072 S 
ATOM     18  O   UNL     1     -28.160 -13.594  16.607  0.00  0.00    -0.150 OA
ATOM     19  O   UNL     1     -29.935 -15.061  15.772  0.00  0.00    -0.150 OA
BRANCH  17  20
ATOM     20  N   UNL     1     -30.036 -14.345  18.313  0.00  0.00    -0.213 N 
ATOM     21  H   UNL     1     -30.406 -15.311  18.458  0.00  0.00    +0.174 HD
BRANCH  20  22
ATOM     22  C   UNL     1     -29.775 -13.510  19.457  0.00  0.00    +0.083 A 
ATOM     23  C   UNL     1     -28.482 -13.388  20.003  0.00  0.00    +0.027 A 
ATOM     24  C   UNL     1     -28.259 -12.578  21.120  0.00  0.00    +0.002 A 
ATOM     25  C   UNL     1     -29.316 -11.878  21.701  0.00  0.00    +0.003 A 
ATOM     26  C   UNL     1     -30.601 -11.983  21.164  0.00  0.00    +0.040 A 
ATOM     27  C   UNL     1     -30.832 -12.792  20.047  0.00  0.00    +0.146 A 
ATOM     28  F   UNL     1     -32.091 -12.884  19.548  0.00  0.00    -0.204 F 
ENDBRANCH  20  22
ENDBRANCH  17  20
ENDBRANCH   5  17
TORSDOF 5
ENDMDL
