MODEL 1
REMARK VINA RESULT:    -5.094      0.000      0.000
REMARK INTER + INTRA:          -7.547
REMARK INTER:                  -6.583
REMARK INTRA:                  -0.963
REMARK UNBOUND:                -0.963
REMARK  Name = 
REMARK  5 active torsions:
REMARK  status: ('A' for Active; 'I' for Inactive)
REMARK    1  A    between atoms: C_2  and  C_21
REMARK    2  A    between atoms: N_3  and  C_4
REMARK    3  A    between atoms: C_8  and  S_10
REMARK    4  A    between atoms: S_10  and  N_13
REMARK    5  A    between atoms: N_13  and  C_14
REMARK                            x       y       z     vdW  Elec       q    Type
REMARK                         _______ _______ _______ _____ _____    ______ ____
ROOT
ATOM      1  C   UNL     1     -30.593 -10.788  19.294  0.00  0.00    +0.036 A 
ATOM      2  C   UNL     1     -30.628  -9.397  19.474  0.00  0.00    +0.023 A 
ATOM      3  C   UNL     1     -31.561  -8.619  18.784  0.00  0.00    +0.004 A 
ATOM      4  C   UNL     1     -32.480  -9.224  17.923  0.00  0.00    +0.029 A 
ATOM      5  C   UNL     1     -32.476 -10.614  17.756  0.00  0.00    +0.110 A 
ATOM      6  C   UNL     1     -31.533 -11.394  18.441  0.00  0.00    +0.052 A 
ENDROOT
BRANCH   1   9
ATOM      7  O   UNL     1     -27.937 -11.483  18.440  0.00  0.00    -0.270 OA
ATOM      8  C   UNL     1     -28.352 -11.960  19.531  0.00  0.00    +0.248 C 
ATOM      9  N   UNL     1     -29.643 -11.571  20.039  0.00  0.00    -0.281 N 
ATOM     10  H   UNL     1     -29.909 -11.830  21.013  0.00  0.00    +0.155 HD
BRANCH   8  11
ATOM     11  C   UNL     1     -27.487 -12.911  20.272  0.00  0.00    +0.040 A 
ATOM     12  C   UNL     1     -26.151 -13.139  19.898  0.00  0.00    +0.033 A 
ATOM     13  C   UNL     1     -25.375 -14.047  20.624  0.00  0.00    +0.111 A 
ATOM     14  N   UNL     1     -25.909 -14.711  21.681  0.00  0.00    -0.263 NA
ATOM     15  C   UNL     1     -27.199 -14.520  22.062  0.00  0.00    +0.111 A 
ATOM     16  C   UNL     1     -28.011 -13.624  21.364  0.00  0.00    +0.033 A 
ENDBRANCH   8  11
ENDBRANCH   1   9
BRANCH   5  17
ATOM     17  S   UNL     1     -33.660 -11.386  16.705  0.00  0.00    +0.072 S 
ATOM     18  O   UNL     1     -35.037 -10.978  17.150  0.00  0.00    -0.150 OA
ATOM     19  O   UNL     1     -33.543 -12.883  16.784  0.00  0.00    -0.150 OA
BRANCH  17  20
ATOM     20  N   UNL     1     -33.420 -10.885  15.060  0.00  0.00    -0.213 N 
ATOM     21  H   UNL     1     -33.452  -9.859  14.875  0.00  0.00    +0.174 HD
BRANCH  20  22
ATOM     22  C   UNL     1     -33.065 -11.785  13.993  0.00  0.00    +0.083 A 
ATOM     23  C   UNL     1     -33.968 -12.096  12.957  0.00  0.00    +0.027 A 
ATOM     24  C   UNL     1     -33.600 -12.981  11.939  0.00  0.00    +0.002 A 
ATOM     25  C   UNL     1     -32.330 -13.559  11.938  0.00  0.00    +0.003 A 
ATOM     26  C   UNL     1     -31.422 -13.252  12.954  0.00  0.00    +0.040 A 
ATOM     27  C   UNL     1     -31.784 -12.368  13.976  0.00  0.00    +0.146 A 
ATOM     28  F   UNL     1     -30.887 -12.092  14.956  0.00  0.00    -0.204 F 
ENDBRANCH  20  22
ENDBRANCH  17  20
ENDBRANCH   5  17
TORSDOF 5
ENDMDL
MODEL 2
REMARK VINA RESULT:    -4.905      1.874      4.301
REMARK INTER + INTRA:          -7.303
REMARK INTER:                  -6.148
REMARK INTRA:                  -1.155
REMARK UNBOUND:                -0.963
REMARK  Name = 
REMARK  5 active torsions:
REMARK  status: ('A' for Active; 'I' for Inactive)
REMARK    1  A    between atoms: C_2  and  C_21
REMARK    2  A    between atoms: N_3  and  C_4
REMARK    3  A    between atoms: C_8  and  S_10
REMARK    4  A    between atoms: S_10  and  N_13
REMARK    5  A    between atoms: N_13  and  C_14
REMARK                            x       y       z     vdW  Elec       q    Type
REMARK                         _______ _______ _______ _____ _____    ______ ____
ROOT
ATOM      1  C   UNL     1     -30.027 -13.920  16.436  0.00  0.00    +0.036 A 
ATOM      2  C   UNL     1     -29.391 -14.485  15.320  0.00  0.00    +0.023 A 
ATOM      3  C   UNL     1     -29.912 -14.295  14.038  0.00  0.00    +0.004 A 
ATOM      4  C   UNL     1     -31.062 -13.522  13.856  0.00  0.00    +0.029 A 
ATOM      5  C   UNL     1     -31.691 -12.928  14.956  0.00  0.00    +0.110 A 
ATOM      6  C   UNL     1     -31.173 -13.128  16.244  0.00  0.00    +0.052 A 
ENDROOT
BRANCH   1   9
ATOM      7  O   UNL     1     -28.559 -11.952  17.933  0.00  0.00    -0.270 OA
ATOM      8  C   UNL     1     -28.657 -13.113  18.417  0.00  0.00    +0.248 C 
ATOM      9  N   UNL     1     -29.454 -14.106  17.743  0.00  0.00    -0.281 N 
ATOM     10  H   UNL     1     -29.671 -15.003  18.227  0.00  0.00    +0.155 HD
BRANCH   8  11
ATOM     11  C   UNL     1     -27.949 -13.422  19.683  0.00  0.00    +0.040 A 
ATOM     12  C   UNL     1     -28.643 -13.598  20.893  0.00  0.00    +0.033 A 
ATOM     13  C   UNL     1     -27.933 -13.884  22.062  0.00  0.00    +0.111 A 
ATOM     14  N   UNL     1     -26.579 -13.986  22.032  0.00  0.00    -0.263 NA
ATOM     15  C   UNL     1     -25.878 -13.813  20.882  0.00  0.00    +0.111 A 
ATOM     16  C   UNL     1     -26.547 -13.522  19.690  0.00  0.00    +0.033 A 
ENDBRANCH   8  11
ENDBRANCH   1   9
BRANCH   5  17
ATOM     17  S   UNL     1     -33.115 -11.918  14.727  0.00  0.00    +0.072 S 
ATOM     18  O   UNL     1     -34.184 -12.371  15.683  0.00  0.00    -0.150 OA
ATOM     19  O   UNL     1     -33.631 -12.040  13.320  0.00  0.00    -0.150 OA
BRANCH  17  20
ATOM     20  N   UNL     1     -32.731 -10.255  15.047  0.00  0.00    -0.213 N 
ATOM     21  H   UNL     1     -32.725  -9.611  14.226  0.00  0.00    +0.174 HD
BRANCH  20  22
ATOM     22  C   UNL     1     -32.551  -9.715  16.370  0.00  0.00    +0.083 A 
ATOM     23  C   UNL     1     -33.648  -9.330  17.166  0.00  0.00    +0.027 A 
ATOM     24  C   UNL     1     -33.443  -8.800  18.444  0.00  0.00    +0.002 A 
ATOM     25  C   UNL     1     -32.149  -8.652  18.943  0.00  0.00    +0.003 A 
ATOM     26  C   UNL     1     -31.054  -9.039  18.167  0.00  0.00    +0.040 A 
ATOM     27  C   UNL     1     -31.251  -9.570  16.889  0.00  0.00    +0.146 A 
ATOM     28  F   UNL     1     -30.170  -9.931  16.151  0.00  0.00    -0.204 F 
ENDBRANCH  20  22
ENDBRANCH  17  20
ENDBRANCH   5  17
TORSDOF 5
ENDMDL
MODEL 3
REMARK VINA RESULT:    -4.902      1.781      2.377
REMARK INTER + INTRA:          -7.298
REMARK INTER:                  -6.557
REMARK INTRA:                  -0.741
REMARK UNBOUND:                -0.963
REMARK  Name = 
REMARK  5 active torsions:
REMARK  status: ('A' for Active; 'I' for Inactive)
REMARK    1  A    between atoms: C_2  and  C_21
REMARK    2  A    between atoms: N_3  and  C_4
REMARK    3  A    between atoms: C_8  and  S_10
REMARK    4  A    between atoms: S_10  and  N_13
REMARK    5  A    between atoms: N_13  and  C_14
REMARK                            x       y       z     vdW  Elec       q    Type
REMARK                         _______ _______ _______ _____ _____    ______ ____
ROOT
ATOM      1  C   UNL     1     -30.244 -10.833  18.825  0.00  0.00    +0.036 A 
ATOM      2  C   UNL     1     -30.646  -9.529  19.148  0.00  0.00    +0.023 A 
ATOM      3  C   UNL     1     -31.570  -8.854  18.346  0.00  0.00    +0.004 A 
ATOM      4  C   UNL     1     -32.115  -9.484  17.224  0.00  0.00    +0.029 A 
ATOM      5  C   UNL     1     -31.746 -10.796  16.905  0.00  0.00    +0.110 A 
ATOM      6  C   UNL     1     -30.811 -11.468  17.705  0.00  0.00    +0.052 A 
ENDROOT
BRANCH   1   9
ATOM      7  O   UNL     1     -27.947 -12.337  17.972  0.00  0.00    -0.270 OA
ATOM      8  C   UNL     1     -28.224 -12.326  19.202  0.00  0.00    +0.248 C 
ATOM      9  N   UNL     1     -29.314 -11.517  19.684  0.00  0.00    -0.281 N 
ATOM     10  H   UNL     1     -29.433 -11.377  20.710  0.00  0.00    +0.155 HD
BRANCH   8  11
ATOM     11  C   UNL     1     -27.405 -13.146  20.127  0.00  0.00    +0.040 A 
ATOM     12  C   UNL     1     -27.980 -13.831  21.213  0.00  0.00    +0.033 A 
ATOM     13  C   UNL     1     -27.168 -14.589  22.061  0.00  0.00    +0.111 A 
ATOM     14  N   UNL     1     -25.830 -14.660  21.843  0.00  0.00    -0.263 NA
ATOM     15  C   UNL     1     -25.242 -14.003  20.810  0.00  0.00    +0.111 A 
ATOM     16  C   UNL     1     -26.015 -13.232  19.939  0.00  0.00    +0.033 A 
ENDBRANCH   8  11
ENDBRANCH   1   9
BRANCH   5  17
ATOM     17  S   UNL     1     -32.463 -11.608  15.517  0.00  0.00    +0.072 S 
ATOM     18  O   UNL     1     -31.961 -10.950  14.262  0.00  0.00    -0.150 OA
ATOM     19  O   UNL     1     -33.962 -11.506  15.558  0.00  0.00    -0.150 OA
BRANCH  17  20
ATOM     20  N   UNL     1     -32.010 -13.285  15.502  0.00  0.00    -0.213 N 
ATOM     21  H   UNL     1     -32.635 -13.942  16.019  0.00  0.00    +0.174 HD
BRANCH  20  22
ATOM     22  C   UNL     1     -30.916 -13.812  14.727  0.00  0.00    +0.083 A 
ATOM     23  C   UNL     1     -30.931 -13.791  13.319  0.00  0.00    +0.027 A 
ATOM     24  C   UNL     1     -29.859 -14.318  12.592  0.00  0.00    +0.002 A 
ATOM     25  C   UNL     1     -28.762 -14.865  13.257  0.00  0.00    +0.003 A 
ATOM     26  C   UNL     1     -28.731 -14.884  14.653  0.00  0.00    +0.040 A 
ATOM     27  C   UNL     1     -29.799 -14.359  15.387  0.00  0.00    +0.146 A 
ATOM     28  F   UNL     1     -29.749 -14.396  16.743  0.00  0.00    -0.204 F 
ENDBRANCH  20  22
ENDBRANCH  17  20
ENDBRANCH   5  17
TORSDOF 5
ENDMDL
MODEL 4
REMARK VINA RESULT:    -4.765      1.215      1.628
REMARK INTER + INTRA:          -7.121
REMARK INTER:                  -6.207
REMARK INTRA:                  -0.914
REMARK UNBOUND:                -0.963
REMARK  Name = 
REMARK  5 active torsions:
REMARK  status: ('A' for Active; 'I' for Inactive)
REMARK    1  A    between atoms: C_2  and  C_21
REMARK    2  A    between atoms: N_3  and  C_4
REMARK    3  A    between atoms: C_8  and  S_10
REMARK    4  A    between atoms: S_10  and  N_13
REMARK    5  A    between atoms: N_13  and  C_14
REMARK                            x       y       z     vdW  Elec       q    Type
REMARK                         _______ _______ _______ _____ _____    ______ ____
ROOT
ATOM      1  C   UNL     1     -30.262 -10.281  19.004  0.00  0.00    +0.036 A 
ATOM      2  C   UNL     1     -30.442  -9.137  19.796  0.00  0.00    +0.023 A 
ATOM      3  C   UNL     1     -31.511  -8.270  19.554  0.00  0.00    +0.004 A 
ATOM      4  C   UNL     1     -32.422  -8.549  18.531  0.00  0.00    +0.029 A 
ATOM      5  C   UNL     1     -32.272  -9.701  17.751  0.00  0.00    +0.110 A 
ATOM      6  C   UNL     1     -31.193 -10.565  17.988  0.00  0.00    +0.052 A 
ENDROOT
BRANCH   1   9
ATOM      7  O   UNL     1     -30.358 -12.556  20.758  0.00  0.00    -0.270 OA
ATOM      8  C   UNL     1     -29.249 -12.253  20.242  0.00  0.00    +0.248 C 
ATOM      9  N   UNL     1     -29.171 -11.173  19.292  0.00  0.00    -0.281 N 
ATOM     10  H   UNL     1     -28.295 -11.036  18.743  0.00  0.00    +0.155 HD
BRANCH   8  11
ATOM     11  C   UNL     1     -28.044 -13.029  20.627  0.00  0.00    +0.040 A 
ATOM     12  C   UNL     1     -28.047 -13.896  21.734  0.00  0.00    +0.033 A 
ATOM     13  C   UNL     1     -26.887 -14.604  22.061  0.00  0.00    +0.111 A 
ATOM     14  N   UNL     1     -25.761 -14.453  21.317  0.00  0.00    -0.263 NA
ATOM     15  C   UNL     1     -25.723 -13.617  20.247  0.00  0.00    +0.111 A 
ATOM     16  C   UNL     1     -26.858 -12.887  19.886  0.00  0.00    +0.033 A 
ENDBRANCH   8  11
ENDBRANCH   1   9
BRANCH   5  17
ATOM     17  S   UNL     1     -33.441 -10.078  16.489  0.00  0.00    +0.072 S 
ATOM     18  O   UNL     1     -33.191  -9.171  15.316  0.00  0.00    -0.150 OA
ATOM     19  O   UNL     1     -34.844  -9.865  16.985  0.00  0.00    -0.150 OA
BRANCH  17  20
ATOM     20  N   UNL     1     -33.265 -11.730  15.981  0.00  0.00    -0.213 N 
ATOM     21  H   UNL     1     -33.392 -12.461  16.716  0.00  0.00    +0.174 HD
BRANCH  20  22
ATOM     22  C   UNL     1     -33.083 -12.131  14.610  0.00  0.00    +0.083 A 
ATOM     23  C   UNL     1     -34.139 -12.078  13.679  0.00  0.00    +0.027 A 
ATOM     24  C   UNL     1     -33.938 -12.482  12.356  0.00  0.00    +0.002 A 
ATOM     25  C   UNL     1     -32.685 -12.937  11.945  0.00  0.00    +0.003 A 
ATOM     26  C   UNL     1     -31.627 -12.986  12.856  0.00  0.00    +0.040 A 
ATOM     27  C   UNL     1     -31.822 -12.584  14.181  0.00  0.00    +0.146 A 
ATOM     28  F   UNL     1     -30.781 -12.648  15.049  0.00  0.00    -0.204 F 
ENDBRANCH  20  22
ENDBRANCH  17  20
ENDBRANCH   5  17
TORSDOF 5
ENDMDL
MODEL 5
REMARK VINA RESULT:    -4.751      2.748      4.487
REMARK INTER + INTRA:          -7.103
REMARK INTER:                  -6.197
REMARK INTRA:                  -0.905
REMARK UNBOUND:                -0.963
REMARK  Name = 
REMARK  5 active torsions:
REMARK  status: ('A' for Active; 'I' for Inactive)
REMARK    1  A    between atoms: C_2  and  C_21
REMARK    2  A    between atoms: N_3  and  C_4
REMARK    3  A    between atoms: C_8  and  S_10
REMARK    4  A    between atoms: S_10  and  N_13
REMARK    5  A    between atoms: N_13  and  C_14
REMARK                            x       y       z     vdW  Elec       q    Type
REMARK                         _______ _______ _______ _____ _____    ______ ____
ROOT
ATOM      1  C   UNL     1     -29.730 -14.181  15.744  0.00  0.00    +0.036 A 
ATOM      2  C   UNL     1     -28.744 -14.794  14.957  0.00  0.00    +0.023 A 
ATOM      3  C   UNL     1     -28.899 -14.882  13.571  0.00  0.00    +0.004 A 
ATOM      4  C   UNL     1     -30.031 -14.339  12.956  0.00  0.00    +0.029 A 
ATOM      5  C   UNL     1     -31.009 -13.697  13.726  0.00  0.00    +0.110 A 
ATOM      6  C   UNL     1     -30.857 -13.620  15.117  0.00  0.00    +0.052 A 
ENDROOT
BRANCH   1   9
ATOM      7  O   UNL     1     -29.434 -11.741  17.236  0.00  0.00    -0.270 OA
ATOM      8  C   UNL     1     -29.309 -12.833  17.855  0.00  0.00    +0.248 C 
ATOM      9  N   UNL     1     -29.533 -14.078  17.166  0.00  0.00    -0.281 N 
ATOM     10  H   UNL     1     -29.597 -14.963  17.714  0.00  0.00    +0.155 HD
BRANCH   8  11
ATOM     11  C   UNL     1     -28.940 -12.803  19.291  0.00  0.00    +0.040 A 
ATOM     12  C   UNL     1     -29.655 -12.028  20.222  0.00  0.00    +0.033 A 
ATOM     13  C   UNL     1     -29.268 -12.027  21.565  0.00  0.00    +0.111 A 
ATOM     14  N   UNL     1     -28.203 -12.766  21.969  0.00  0.00    -0.263 NA
ATOM     15  C   UNL     1     -27.486 -13.518  21.094  0.00  0.00    +0.111 A 
ATOM     16  C   UNL     1     -27.835 -13.546  19.742  0.00  0.00    +0.033 A 
ENDBRANCH   8  11
ENDBRANCH   1   9
BRANCH   5  17
ATOM     17  S   UNL     1     -32.416 -12.974  12.951  0.00  0.00    +0.072 S 
ATOM     18  O   UNL     1     -33.049 -13.999  12.051  0.00  0.00    -0.150 OA
ATOM     19  O   UNL     1     -32.014 -11.781  12.130  0.00  0.00    -0.150 OA
BRANCH  17  20
ATOM     20  N   UNL     1     -33.570 -12.475  14.149  0.00  0.00    -0.213 N 
ATOM     21  H   UNL     1     -33.970 -13.226  14.754  0.00  0.00    +0.174 HD
BRANCH  20  22
ATOM     22  C   UNL     1     -33.897 -11.099  14.421  0.00  0.00    +0.083 A 
ATOM     23  C   UNL     1     -34.770 -10.369  13.591  0.00  0.00    +0.027 A 
ATOM     24  C   UNL     1     -35.062  -9.032  13.874  0.00  0.00    +0.002 A 
ATOM     25  C   UNL     1     -34.494  -8.409  14.986  0.00  0.00    +0.003 A 
ATOM     26  C   UNL     1     -33.634  -9.125  15.822  0.00  0.00    +0.040 A 
ATOM     27  C   UNL     1     -33.336 -10.463  15.545  0.00  0.00    +0.146 A 
ATOM     28  F   UNL     1     -32.491 -11.134  16.367  0.00  0.00    -0.204 F 
ENDBRANCH  20  22
ENDBRANCH  17  20
ENDBRANCH   5  17
TORSDOF 5
ENDMDL
MODEL 6
REMARK VINA RESULT:    -4.656      2.810      7.473
REMARK INTER + INTRA:          -6.980
REMARK INTER:                  -5.922
REMARK INTRA:                  -1.058
REMARK UNBOUND:                -0.963
REMARK  Name = 
REMARK  5 active torsions:
REMARK  status: ('A' for Active; 'I' for Inactive)
REMARK    1  A    between atoms: C_2  and  C_21
REMARK    2  A    between atoms: N_3  and  C_4
REMARK    3  A    between atoms: C_8  and  S_10
REMARK    4  A    between atoms: S_10  and  N_13
REMARK    5  A    between atoms: N_13  and  C_14
REMARK                            x       y       z     vdW  Elec       q    Type
REMARK                         _______ _______ _______ _____ _____    ______ ____
ROOT
ATOM      1  C   UNL     1     -33.372  -9.148  16.685  0.00  0.00    +0.036 A 
ATOM      2  C   UNL     1     -34.498  -8.312  16.733  0.00  0.00    +0.023 A 
ATOM      3  C   UNL     1     -34.754  -7.535  17.866  0.00  0.00    +0.004 A 
ATOM      4  C   UNL     1     -33.877  -7.571  18.953  0.00  0.00    +0.029 A 
ATOM      5  C   UNL     1     -32.734  -8.377  18.908  0.00  0.00    +0.110 A 
ATOM      6  C   UNL     1     -32.483  -9.164  17.775  0.00  0.00    +0.052 A 
ENDROOT
BRANCH   1   9
ATOM      7  O   UNL     1     -34.472 -11.732  16.070  0.00  0.00    -0.270 OA
ATOM      8  C   UNL     1     -33.627 -11.243  15.272  0.00  0.00    +0.248 C 
ATOM      9  N   UNL     1     -33.114  -9.915  15.496  0.00  0.00    -0.281 N 
ATOM     10  H   UNL     1     -32.552  -9.451  14.750  0.00  0.00    +0.155 HD
BRANCH   8  11
ATOM     11  C   UNL     1     -33.188 -12.052  14.109  0.00  0.00    +0.040 A 
ATOM     12  C   UNL     1     -34.033 -12.284  13.009  0.00  0.00    +0.033 A 
ATOM     13  C   UNL     1     -33.578 -13.057  11.938  0.00  0.00    +0.111 A 
ATOM     14  N   UNL     1     -32.328 -13.588  11.960  0.00  0.00    -0.263 NA
ATOM     15  C   UNL     1     -31.490 -13.390  13.011  0.00  0.00    +0.111 A 
ATOM     16  C   UNL     1     -31.905 -12.626  14.104  0.00  0.00    +0.033 A 
ENDBRANCH   8  11
ENDBRANCH   1   9
BRANCH   5  17
ATOM     17  S   UNL     1     -31.603  -8.393  20.259  0.00  0.00    +0.072 S 
ATOM     18  O   UNL     1     -31.875  -7.195  21.127  0.00  0.00    -0.150 OA
ATOM     19  O   UNL     1     -30.185  -8.328  19.764  0.00  0.00    -0.150 OA
BRANCH  17  20
ATOM     20  N   UNL     1     -31.810  -9.838  21.199  0.00  0.00    -0.213 N 
ATOM     21  H   UNL     1     -32.647  -9.875  21.822  0.00  0.00    +0.174 HD
BRANCH  20  22
ATOM     22  C   UNL     1     -30.975 -11.004  21.068  0.00  0.00    +0.083 A 
ATOM     23  C   UNL     1     -29.732 -11.100  21.724  0.00  0.00    +0.027 A 
ATOM     24  C   UNL     1     -28.937 -12.240  21.572  0.00  0.00    +0.002 A 
ATOM     25  C   UNL     1     -29.371 -13.296  20.771  0.00  0.00    +0.003 A 
ATOM     26  C   UNL     1     -30.605 -13.217  20.121  0.00  0.00    +0.040 A 
ATOM     27  C   UNL     1     -31.406 -12.080  20.269  0.00  0.00    +0.146 A 
ATOM     28  F   UNL     1     -32.597 -12.023  19.622  0.00  0.00    -0.204 F 
ENDBRANCH  20  22
ENDBRANCH  17  20
ENDBRANCH   5  17
TORSDOF 5
ENDMDL
MODEL 7
REMARK VINA RESULT:    -4.509      3.026      7.086
REMARK INTER + INTRA:          -6.791
REMARK INTER:                  -5.811
REMARK INTRA:                  -0.979
REMARK UNBOUND:                -0.963
REMARK  Name = 
REMARK  5 active torsions:
REMARK  status: ('A' for Active; 'I' for Inactive)
REMARK    1  A    between atoms: C_2  and  C_21
REMARK    2  A    between atoms: N_3  and  C_4
REMARK    3  A    between atoms: C_8  and  S_10
REMARK    4  A    between atoms: S_10  and  N_13
REMARK    5  A    between atoms: N_13  and  C_14
REMARK                            x       y       z     vdW  Elec       q    Type
REMARK                         _______ _______ _______ _____ _____    ______ ____
ROOT
ATOM      1  C   UNL     1     -31.227 -10.181  16.647  0.00  0.00    +0.036 A 
ATOM      2  C   UNL     1     -32.006 -10.208  15.480  0.00  0.00    +0.023 A 
ATOM      3  C   UNL     1     -32.027 -11.346  14.670  0.00  0.00    +0.004 A 
ATOM      4  C   UNL     1     -31.286 -12.475  15.028  0.00  0.00    +0.029 A 
ATOM      5  C   UNL     1     -30.528 -12.475  16.205  0.00  0.00    +0.110 A 
ATOM      6  C   UNL     1     -30.500 -11.328  17.012  0.00  0.00    +0.052 A 
ENDROOT
BRANCH   1   9
ATOM      7  O   UNL     1     -32.582  -9.921  19.170  0.00  0.00    -0.270 OA
ATOM      8  C   UNL     1     -32.008  -8.902  18.698  0.00  0.00    +0.248 C 
ATOM      9  N   UNL     1     -31.246  -9.008  17.480  0.00  0.00    -0.281 N 
ATOM     10  H   UNL     1     -30.637  -8.214  17.186  0.00  0.00    +0.155 HD
BRANCH   8  11
ATOM     11  C   UNL     1     -32.127  -7.614  19.423  0.00  0.00    +0.040 A 
ATOM     12  C   UNL     1     -33.191  -6.726  19.181  0.00  0.00    +0.033 A 
ATOM     13  C   UNL     1     -33.260  -5.521  19.885  0.00  0.00    +0.111 A 
ATOM     14  N   UNL     1     -32.302  -5.204  20.794  0.00  0.00    -0.263 NA
ATOM     15  C   UNL     1     -31.257  -6.035  21.044  0.00  0.00    +0.111 A 
ATOM     16  C   UNL     1     -31.147  -7.249  20.362  0.00  0.00    +0.033 A 
ENDBRANCH   8  11
ENDBRANCH   1   9
BRANCH   5  17
ATOM     17  S   UNL     1     -29.628 -13.910  16.683  0.00  0.00    +0.072 S 
ATOM     18  O   UNL     1     -28.158 -13.606  16.600  0.00  0.00    -0.150 OA
ATOM     19  O   UNL     1     -29.942 -15.062  15.770  0.00  0.00    -0.150 OA
BRANCH  17  20
ATOM     20  N   UNL     1     -30.027 -14.355  18.314  0.00  0.00    -0.213 N 
ATOM     21  H   UNL     1     -30.404 -15.319  18.456  0.00  0.00    +0.174 HD
BRANCH  20  22
ATOM     22  C   UNL     1     -29.753 -13.527  19.460  0.00  0.00    +0.083 A 
ATOM     23  C   UNL     1     -28.454 -13.410  19.992  0.00  0.00    +0.027 A 
ATOM     24  C   UNL     1     -28.217 -12.607  21.111  0.00  0.00    +0.002 A 
ATOM     25  C   UNL     1     -29.267 -11.909  21.708  0.00  0.00    +0.003 A 
ATOM     26  C   UNL     1     -30.558 -12.009  21.184  0.00  0.00    +0.040 A 
ATOM     27  C   UNL     1     -30.802 -12.811  20.065  0.00  0.00    +0.146 A 
ATOM     28  F   UNL     1     -32.066 -12.898  19.580  0.00  0.00    -0.204 F 
ENDBRANCH  20  22
ENDBRANCH  17  20
ENDBRANCH   5  17
TORSDOF 5
ENDMDL
MODEL 8
REMARK VINA RESULT:    -4.502      2.939      6.607
REMARK INTER + INTRA:          -6.781
REMARK INTER:                  -6.046
REMARK INTRA:                  -0.736
REMARK UNBOUND:                -0.963
REMARK  Name = 
REMARK  5 active torsions:
REMARK  status: ('A' for Active; 'I' for Inactive)
REMARK    1  A    between atoms: C_2  and  C_21
REMARK    2  A    between atoms: N_3  and  C_4
REMARK    3  A    between atoms: C_8  and  S_10
REMARK    4  A    between atoms: S_10  and  N_13
REMARK    5  A    between atoms: N_13  and  C_14
REMARK                            x       y       z     vdW  Elec       q    Type
REMARK                         _______ _______ _______ _____ _____    ______ ____
ROOT
ATOM      1  C   UNL     1     -32.605  -9.512  16.780  0.00  0.00    +0.036 A 
ATOM      2  C   UNL     1     -33.804  -8.786  16.843  0.00  0.00    +0.023 A 
ATOM      3  C   UNL     1     -34.092  -7.992  17.957  0.00  0.00    +0.004 A 
ATOM      4  C   UNL     1     -33.176  -7.901  19.008  0.00  0.00    +0.029 A 
ATOM      5  C   UNL     1     -31.963  -8.596  18.946  0.00  0.00    +0.110 A 
ATOM      6  C   UNL     1     -31.679  -9.400  17.833  0.00  0.00    +0.052 A 
ENDROOT
BRANCH   1   9
ATOM      7  O   UNL     1     -33.083 -12.331  16.480  0.00  0.00    -0.270 OA
ATOM      8  C   UNL     1     -32.502 -11.726  15.539  0.00  0.00    +0.248 C 
ATOM      9  N   UNL     1     -32.318 -10.299  15.610  0.00  0.00    -0.281 N 
ATOM     10  H   UNL     1     -31.995  -9.781  14.764  0.00  0.00    +0.155 HD
BRANCH   8  11
ATOM     11  C   UNL     1     -32.027 -12.506  14.370  0.00  0.00    +0.040 A 
ATOM     12  C   UNL     1     -30.881 -13.318  14.441  0.00  0.00    +0.033 A 
ATOM     13  C   UNL     1     -30.469 -14.033  13.312  0.00  0.00    +0.111 A 
ATOM     14  N   UNL     1     -31.167 -13.939  12.151  0.00  0.00    -0.263 NA
ATOM     15  C   UNL     1     -32.273 -13.157  12.048  0.00  0.00    +0.111 A 
ATOM     16  C   UNL     1     -32.719 -12.424  13.149  0.00  0.00    +0.033 A 
ENDBRANCH   8  11
ENDBRANCH   1   9
BRANCH   5  17
ATOM     17  S   UNL     1     -30.787  -8.450  20.250  0.00  0.00    +0.072 S 
ATOM     18  O   UNL     1     -31.469  -8.773  21.550  0.00  0.00    -0.150 OA
ATOM     19  O   UNL     1     -30.241  -7.050  20.317  0.00  0.00    -0.150 OA
BRANCH  17  20
ATOM     20  N   UNL     1     -29.474  -9.559  20.002  0.00  0.00    -0.213 N 
ATOM     21  H   UNL     1     -28.530  -9.243  20.316  0.00  0.00    +0.174 HD
BRANCH  20  22
ATOM     22  C   UNL     1     -29.644 -10.903  19.513  0.00  0.00    +0.083 A 
ATOM     23  C   UNL     1     -30.467 -11.833  20.179  0.00  0.00    +0.027 A 
ATOM     24  C   UNL     1     -30.606 -13.134  19.688  0.00  0.00    +0.002 A 
ATOM     25  C   UNL     1     -29.932 -13.523  18.530  0.00  0.00    +0.003 A 
ATOM     26  C   UNL     1     -29.120 -12.608  17.856  0.00  0.00    +0.040 A 
ATOM     27  C   UNL     1     -28.976 -11.304  18.341  0.00  0.00    +0.146 A 
ATOM     28  F   UNL     1     -28.175 -10.437  17.673  0.00  0.00    -0.204 F 
ENDBRANCH  20  22
ENDBRANCH  17  20
ENDBRANCH   5  17
TORSDOF 5
ENDMDL
MODEL 9
REMARK VINA RESULT:    -4.455      2.712      5.371
REMARK INTER + INTRA:          -6.721
REMARK INTER:                  -5.794
REMARK INTRA:                  -0.927
REMARK UNBOUND:                -0.963
REMARK  Name = 
REMARK  5 active torsions:
REMARK  status: ('A' for Active; 'I' for Inactive)
REMARK    1  A    between atoms: C_2  and  C_21
REMARK    2  A    between atoms: N_3  and  C_4
REMARK    3  A    between atoms: C_8  and  S_10
REMARK    4  A    between atoms: S_10  and  N_13
REMARK    5  A    between atoms: N_13  and  C_14
REMARK                            x       y       z     vdW  Elec       q    Type
REMARK                         _______ _______ _______ _____ _____    ______ ____
ROOT
ATOM      1  C   UNL     1     -29.515 -10.786  18.642  0.00  0.00    +0.036 A 
ATOM      2  C   UNL     1     -28.432 -11.356  19.328  0.00  0.00    +0.023 A 
ATOM      3  C   UNL     1     -28.017 -12.658  19.038  0.00  0.00    +0.004 A 
ATOM      4  C   UNL     1     -28.668 -13.397  18.046  0.00  0.00    +0.029 A 
ATOM      5  C   UNL     1     -29.732 -12.832  17.333  0.00  0.00    +0.110 A 
ATOM      6  C   UNL     1     -30.154 -11.528  17.632  0.00  0.00    +0.052 A 
ENDROOT
BRANCH   1   9
ATOM      7  O   UNL     1     -31.252  -9.955  20.778  0.00  0.00    -0.270 OA
ATOM      8  C   UNL     1     -30.842  -9.077  19.971  0.00  0.00    +0.248 C 
ATOM      9  N   UNL     1     -29.904  -9.433  18.938  0.00  0.00    -0.281 N 
ATOM     10  H   UNL     1     -29.440  -8.680  18.385  0.00  0.00    +0.155 HD
BRANCH   8  11
ATOM     11  C   UNL     1     -31.337  -7.686  20.116  0.00  0.00    +0.040 A 
ATOM     12  C   UNL     1     -32.507  -7.247  19.471  0.00  0.00    +0.033 A 
ATOM     13  C   UNL     1     -32.932  -5.926  19.633  0.00  0.00    +0.111 A 
ATOM     14  N   UNL     1     -32.218  -5.067  20.406  0.00  0.00    -0.263 NA
ATOM     15  C   UNL     1     -31.079  -5.457  21.035  0.00  0.00    +0.111 A 
ATOM     16  C   UNL     1     -30.615  -6.768  20.898  0.00  0.00    +0.033 A 
ENDBRANCH   8  11
ENDBRANCH   1   9
BRANCH   5  17
ATOM     17  S   UNL     1     -30.528 -13.743  16.054  0.00  0.00    +0.072 S 
ATOM     18  O   UNL     1     -31.912 -14.109  16.513  0.00  0.00    -0.150 OA
ATOM     19  O   UNL     1     -29.765 -15.002  15.745  0.00  0.00    -0.150 OA
BRANCH  17  20
ATOM     20  N   UNL     1     -30.641 -12.782  14.612  0.00  0.00    -0.213 N 
ATOM     21  H   UNL     1     -29.752 -12.361  14.260  0.00  0.00    +0.174 HD
BRANCH  20  22
ATOM     22  C   UNL     1     -31.844 -12.647  13.832  0.00  0.00    +0.083 A 
ATOM     23  C   UNL     1     -32.070 -13.430  12.682  0.00  0.00    +0.027 A 
ATOM     24  C   UNL     1     -33.243 -13.271  11.938  0.00  0.00    +0.002 A 
ATOM     25  C   UNL     1     -34.202 -12.338  12.331  0.00  0.00    +0.003 A 
ATOM     26  C   UNL     1     -33.994 -11.563  13.474  0.00  0.00    +0.040 A 
ATOM     27  C   UNL     1     -32.823 -11.715  14.223  0.00  0.00    +0.146 A 
ATOM     28  F   UNL     1     -32.640 -10.945  15.325  0.00  0.00    -0.204 F 
ENDBRANCH  20  22
ENDBRANCH  17  20
ENDBRANCH   5  17
TORSDOF 5
ENDMDL
