MODEL 1
REMARK VINA RESULT:    -2.926      0.000      0.000
REMARK INTER + INTRA:          -3.934
REMARK INTER:                  -3.781
REMARK INTRA:                  -0.153
REMARK UNBOUND:                -0.153
REMARK  Name = 
REMARK  9 active torsions:
REMARK  status: ('A' for Active; 'I' for Inactive)
REMARK    1  A    between atoms: C_1  and  O_2
REMARK    2  A    between atoms: O_2  and  C_3
REMARK    3  A    between atoms: C_5  and  C_13
REMARK    4  A    between atoms: C_7  and  O_8
REMARK    5  A    between atoms: O_8  and  C_9
REMARK    6  A    between atoms: C_10  and  O_11
REMARK    7  A    between atoms: O_11  and  C_12
REMARK    8  A    between atoms: N_15  and  C_16
REMARK    9  A    between atoms: C_21  and  C_22
REMARK                            x       y       z     vdW  Elec       q    Type
REMARK                         _______ _______ _______ _____ _____    ______ ____
ROOT
ATOM      1  C   UNL     1     -31.660  -9.721  17.645  0.00  0.00    +0.248 C 
ATOM      2  O   UNL     1     -31.642  -9.482  16.406  0.00  0.00    -0.270 OA
ATOM      3  N   UNL     1     -31.187 -10.989  18.139  0.00  0.00    -0.281 N 
ATOM      4  H   UNL     1     -31.312 -11.221  19.150  0.00  0.00    +0.155 HD
ENDROOT
BRANCH   3   5
ATOM      5  C   UNL     1     -30.601 -12.005  17.308  0.00  0.00    +0.036 A 
ATOM      6  C   UNL     1     -29.588 -12.853  17.791  0.00  0.00    +0.027 A 
ATOM      7  C   UNL     1     -29.053 -13.854  16.972  0.00  0.00    +0.049 A 
ATOM      8  C   UNL     1     -29.528 -14.020  15.668  0.00  0.00    +0.143 A 
ATOM      9  O   UNL     1     -28.994 -15.024  14.851  0.00  0.00    -0.478 OA
ATOM     10  C   UNL     1     -29.184 -15.062  13.431  0.00  0.00    +0.256 C 
ATOM     11  C   UNL     1     -28.023 -14.343  12.747  0.00  0.00    +0.062 C 
ATOM     12  C   UNL     1     -30.491 -14.426  13.035  0.00  0.00    +0.258 C 
ATOM     13  O   UNL     1     -31.032 -14.725  11.938  0.00  0.00    -0.271 OA
ATOM     14  N   UNL     1     -31.083 -13.431  13.876  0.00  0.00    -0.279 N 
ATOM     15  C   UNL     1     -30.562 -13.202  15.189  0.00  0.00    +0.077 A 
ATOM     16  C   UNL     1     -31.100 -12.203  16.012  0.00  0.00    +0.050 A 
ATOM     17  H   UNL     1     -31.919 -12.901  13.540  0.00  0.00    +0.155 HD
ENDBRANCH   3   5
BRANCH   1  20
ATOM     18  C   UNL     1     -33.862  -6.998  19.096  0.00  0.00    +0.166 A 
ATOM     19  C   UNL     1     -33.347  -7.984  18.238  0.00  0.00    +0.062 A 
ATOM     20  C   UNL     1     -32.180  -8.684  18.569  0.00  0.00    +0.044 A 
ATOM     21  C   UNL     1     -31.541  -8.408  19.785  0.00  0.00    +0.062 A 
ATOM     22  C   UNL     1     -32.039  -7.423  20.662  0.00  0.00    +0.166 A 
ATOM     23  C   UNL     1     -33.212  -6.709  20.306  0.00  0.00    +0.204 A 
BRANCH  18  25
ATOM     24  C   UNL     1     -35.047  -5.065  18.027  0.00  0.00    +0.277 C 
ATOM     25  O   UNL     1     -35.025  -6.275  18.780  0.00  0.00    -0.491 OA
ENDBRANCH  18  25
BRANCH  22  26
ATOM     26  O   UNL     1     -31.393  -7.149  21.877  0.00  0.00    -0.491 OA
ATOM     27  C   UNL     1     -30.200  -6.382  22.017  0.00  0.00    +0.277 C 
ENDBRANCH  22  26
BRANCH  23  28
ATOM     28  O   UNL     1     -33.788  -5.703  21.107  0.00  0.00    -0.488 OA
ATOM     29  C   UNL     1     -34.859  -5.862  22.031  0.00  0.00    +0.277 C 
ENDBRANCH  23  28
ENDBRANCH   1  20
TORSDOF 5
ENDMDL
MODEL 2
REMARK VINA RESULT:    -2.586      1.497      2.073
REMARK INTER + INTRA:          -3.494
REMARK INTER:                  -3.045
REMARK INTRA:                  -0.450
REMARK UNBOUND:                -0.153
REMARK  Name = 
REMARK  9 active torsions:
REMARK  status: ('A' for Active; 'I' for Inactive)
REMARK    1  A    between atoms: C_1  and  O_2
REMARK    2  A    between atoms: O_2  and  C_3
REMARK    3  A    between atoms: C_5  and  C_13
REMARK    4  A    between atoms: C_7  and  O_8
REMARK    5  A    between atoms: O_8  and  C_9
REMARK    6  A    between atoms: C_10  and  O_11
REMARK    7  A    between atoms: O_11  and  C_12
REMARK    8  A    between atoms: N_15  and  C_16
REMARK    9  A    between atoms: C_21  and  C_22
REMARK                            x       y       z     vdW  Elec       q    Type
REMARK                         _______ _______ _______ _____ _____    ______ ____
ROOT
ATOM      1  C   UNL     1     -31.237 -10.154  18.120  0.00  0.00    +0.248 C 
ATOM      2  O   UNL     1     -30.823  -9.610  17.059  0.00  0.00    -0.270 OA
ATOM      3  N   UNL     1     -31.096 -11.576  18.302  0.00  0.00    -0.281 N 
ATOM      4  H   UNL     1     -31.544 -12.030  19.129  0.00  0.00    +0.155 HD
ENDROOT
BRANCH   3   5
ATOM      5  C   UNL     1     -30.425 -12.441  17.370  0.00  0.00    +0.036 A 
ATOM      6  C   UNL     1     -29.231 -13.102  17.713  0.00  0.00    +0.027 A 
ATOM      7  C   UNL     1     -28.611 -13.961  16.800  0.00  0.00    +0.049 A 
ATOM      8  C   UNL     1     -29.178 -14.171  15.540  0.00  0.00    +0.143 A 
ATOM      9  O   UNL     1     -28.557 -15.034  14.629  0.00  0.00    -0.478 OA
ATOM     10  C   UNL     1     -28.880 -15.062  13.232  0.00  0.00    +0.256 C 
ATOM     11  C   UNL     1     -27.943 -14.121  12.478  0.00  0.00    +0.062 C 
ATOM     12  C   UNL     1     -30.314 -14.666  12.993  0.00  0.00    +0.258 C 
ATOM     13  O   UNL     1     -30.900 -15.025  11.938  0.00  0.00    -0.271 OA
ATOM     14  N   UNL     1     -30.987 -13.824  13.934  0.00  0.00    -0.279 N 
ATOM     15  C   UNL     1     -30.385 -13.543  15.201  0.00  0.00    +0.077 A 
ATOM     16  C   UNL     1     -31.008 -12.687  16.119  0.00  0.00    +0.050 A 
ATOM     17  H   UNL     1     -31.934 -13.446  13.704  0.00  0.00    +0.155 HD
ENDBRANCH   3   5
BRANCH   1  20
ATOM     18  C   UNL     1     -32.222  -7.101  20.141  0.00  0.00    +0.166 A 
ATOM     19  C   UNL     1     -31.631  -7.926  19.169  0.00  0.00    +0.062 A 
ATOM     20  C   UNL     1     -31.871  -9.307  19.158  0.00  0.00    +0.044 A 
ATOM     21  C   UNL     1     -32.733  -9.856  20.118  0.00  0.00    +0.062 A 
ATOM     22  C   UNL     1     -33.336  -9.048  21.102  0.00  0.00    +0.166 A 
ATOM     23  C   UNL     1     -33.071  -7.655  21.112  0.00  0.00    +0.204 A 
BRANCH  18  25
ATOM     24  C   UNL     1     -30.874  -5.101  20.821  0.00  0.00    +0.277 C 
ATOM     25  O   UNL     1     -31.987  -5.717  20.179  0.00  0.00    -0.491 OA
ENDBRANCH  18  25
BRANCH  22  26
ATOM     26  O   UNL     1     -34.196  -9.605  22.062  0.00  0.00    -0.491 OA
ATOM     27  C   UNL     1     -34.697 -10.938  22.039  0.00  0.00    +0.277 C 
ENDBRANCH  22  26
BRANCH  23  28
ATOM     28  O   UNL     1     -33.617  -6.762  22.055  0.00  0.00    -0.488 OA
ATOM     29  C   UNL     1     -34.657  -5.817  21.827  0.00  0.00    +0.277 C 
ENDBRANCH  23  28
ENDBRANCH   1  20
TORSDOF 5
ENDMDL
MODEL 3
REMARK VINA RESULT:    -1.704      1.977      9.184
REMARK INTER + INTRA:          -2.355
REMARK INTER:                  -2.752
REMARK INTRA:                   0.397
REMARK UNBOUND:                -0.153
REMARK  Name = 
REMARK  9 active torsions:
REMARK  status: ('A' for Active; 'I' for Inactive)
REMARK    1  A    between atoms: C_1  and  O_2
REMARK    2  A    between atoms: O_2  and  C_3
REMARK    3  A    between atoms: C_5  and  C_13
REMARK    4  A    between atoms: C_7  and  O_8
REMARK    5  A    between atoms: O_8  and  C_9
REMARK    6  A    between atoms: C_10  and  O_11
REMARK    7  A    between atoms: O_11  and  C_12
REMARK    8  A    between atoms: N_15  and  C_16
REMARK    9  A    between atoms: C_21  and  C_22
REMARK                            x       y       z     vdW  Elec       q    Type
REMARK                         _______ _______ _______ _____ _____    ______ ____
ROOT
ATOM      1  C   UNL     1     -31.517 -11.025  17.118  0.00  0.00    +0.248 C 
ATOM      2  O   UNL     1     -30.735 -10.035  17.122  0.00  0.00    -0.270 OA
ATOM      3  N   UNL     1     -32.542 -11.137  18.124  0.00  0.00    -0.281 N 
ATOM      4  H   UNL     1     -33.107 -12.013  18.180  0.00  0.00    +0.155 HD
ENDROOT
BRANCH   3   5
ATOM      5  C   UNL     1     -32.802 -10.131  19.118  0.00  0.00    +0.036 A 
ATOM      6  C   UNL     1     -33.837 -10.281  20.059  0.00  0.00    +0.027 A 
ATOM      7  C   UNL     1     -34.052  -9.302  21.035  0.00  0.00    +0.049 A 
ATOM      8  C   UNL     1     -33.236  -8.169  21.083  0.00  0.00    +0.143 A 
ATOM      9  O   UNL     1     -33.452  -7.192  22.062  0.00  0.00    -0.478 OA
ATOM     10  C   UNL     1     -32.887  -5.876  21.994  0.00  0.00    +0.256 C 
ATOM     11  C   UNL     1     -33.877  -4.938  21.306  0.00  0.00    +0.062 C 
ATOM     12  C   UNL     1     -31.577  -5.880  21.250  0.00  0.00    +0.258 C 
ATOM     13  O   UNL     1     -30.741  -4.956  21.440  0.00  0.00    -0.271 OA
ATOM     14  N   UNL     1     -31.311  -6.895  20.279  0.00  0.00    -0.279 N 
ATOM     15  C   UNL     1     -32.180  -8.027  20.171  0.00  0.00    +0.077 A 
ATOM     16  C   UNL     1     -31.962  -9.011  19.197  0.00  0.00    +0.050 A 
ATOM     17  H   UNL     1     -30.461  -6.823  19.675  0.00  0.00    +0.155 HD
ENDBRANCH   3   5
BRANCH   1  20
ATOM     18  C   UNL     1     -32.047 -13.015  13.935  0.00  0.00    +0.166 A 
ATOM     19  C   UNL     1     -32.182 -12.044  14.941  0.00  0.00    +0.062 A 
ATOM     20  C   UNL     1     -31.354 -12.063  16.071  0.00  0.00    +0.044 A 
ATOM     21  C   UNL     1     -30.365 -13.051  16.175  0.00  0.00    +0.062 A 
ATOM     22  C   UNL     1     -30.212 -14.035  15.178  0.00  0.00    +0.166 A 
ATOM     23  C   UNL     1     -31.068 -14.015  14.048  0.00  0.00    +0.204 A 
BRANCH  18  25
ATOM     24  C   UNL     1     -34.146 -12.388  12.718  0.00  0.00    +0.277 C 
ATOM     25  O   UNL     1     -32.874 -13.023  12.798  0.00  0.00    -0.491 OA
ENDBRANCH  18  25
BRANCH  22  26
ATOM     26  O   UNL     1     -29.222 -15.024  15.290  0.00  0.00    -0.491 OA
ATOM     27  C   UNL     1     -27.978 -15.021  14.595  0.00  0.00    +0.277 C 
ENDBRANCH  22  26
BRANCH  23  28
ATOM     28  O   UNL     1     -31.002 -14.954  13.000  0.00  0.00    -0.488 OA
ATOM     29  C   UNL     1     -30.052 -14.979  11.940  0.00  0.00    +0.277 C 
ENDBRANCH  23  28
ENDBRANCH   1  20
TORSDOF 5
ENDMDL
MODEL 4
REMARK VINA RESULT:    -0.867      1.877      2.057
REMARK INTER + INTRA:          -1.274
REMARK INTER:                  -1.638
REMARK INTRA:                   0.364
REMARK UNBOUND:                -0.153
REMARK  Name = 
REMARK  9 active torsions:
REMARK  status: ('A' for Active; 'I' for Inactive)
REMARK    1  A    between atoms: C_1  and  O_2
REMARK    2  A    between atoms: O_2  and  C_3
REMARK    3  A    between atoms: C_5  and  C_13
REMARK    4  A    between atoms: C_7  and  O_8
REMARK    5  A    between atoms: O_8  and  C_9
REMARK    6  A    between atoms: C_10  and  O_11
REMARK    7  A    between atoms: O_11  and  C_12
REMARK    8  A    between atoms: N_15  and  C_16
REMARK    9  A    between atoms: C_21  and  C_22
REMARK                            x       y       z     vdW  Elec       q    Type
REMARK                         _______ _______ _______ _____ _____    ______ ____
ROOT
ATOM      1  C   UNL     1     -30.670  -9.918  19.381  0.00  0.00    +0.248 C 
ATOM      2  O   UNL     1     -29.757 -10.591  19.935  0.00  0.00    -0.270 OA
ATOM      3  N   UNL     1     -31.194 -10.330  18.105  0.00  0.00    -0.281 N 
ATOM      4  H   UNL     1     -31.864  -9.705  17.604  0.00  0.00    +0.155 HD
ENDROOT
BRANCH   3   5
ATOM      5  C   UNL     1     -30.800 -11.535  17.427  0.00  0.00    +0.036 A 
ATOM      6  C   UNL     1     -30.564 -12.729  18.133  0.00  0.00    +0.027 A 
ATOM      7  C   UNL     1     -30.209 -13.896  17.448  0.00  0.00    +0.049 A 
ATOM      8  C   UNL     1     -30.092 -13.884  16.056  0.00  0.00    +0.143 A 
ATOM      9  O   UNL     1     -29.739 -15.054  15.373  0.00  0.00    -0.478 OA
ATOM     10  C   UNL     1     -29.290 -15.062  14.011  0.00  0.00    +0.256 C 
ATOM     11  C   UNL     1     -27.766 -14.976  13.982  0.00  0.00    +0.062 C 
ATOM     12  C   UNL     1     -29.888 -13.920  13.231  0.00  0.00    +0.258 C 
ATOM     13  O   UNL     1     -29.969 -13.987  11.976  0.00  0.00    -0.271 OA
ATOM     14  N   UNL     1     -30.301 -12.731  13.911  0.00  0.00    -0.279 N 
ATOM     15  C   UNL     1     -30.358 -12.708  15.341  0.00  0.00    +0.077 A 
ATOM     16  C   UNL     1     -30.719 -11.540  16.027  0.00  0.00    +0.050 A 
ATOM     17  H   UNL     1     -30.594 -11.894  13.358  0.00  0.00    +0.155 HD
ENDBRANCH   3   5
BRANCH   1  20
ATOM     18  C   UNL     1     -32.911  -7.613  21.390  0.00  0.00    +0.166 A 
ATOM     19  C   UNL     1     -32.407  -8.749  20.735  0.00  0.00    +0.062 A 
ATOM     20  C   UNL     1     -31.178  -8.704  20.063  0.00  0.00    +0.044 A 
ATOM     21  C   UNL     1     -30.439  -7.513  20.075  0.00  0.00    +0.062 A 
ATOM     22  C   UNL     1     -30.925  -6.361  20.725  0.00  0.00    +0.166 A 
ATOM     23  C   UNL     1     -32.178  -6.415  21.386  0.00  0.00    +0.204 A 
BRANCH  18  25
ATOM     24  C   UNL     1     -35.051  -8.731  22.061  0.00  0.00    +0.277 C 
ATOM     25  O   UNL     1     -34.146  -7.631  22.060  0.00  0.00    -0.491 OA
ENDBRANCH  18  25
BRANCH  22  26
ATOM     26  O   UNL     1     -30.181  -5.170  20.730  0.00  0.00    -0.491 OA
ATOM     27  C   UNL     1     -28.902  -5.006  21.334  0.00  0.00    +0.277 C 
ENDBRANCH  22  26
BRANCH  23  28
ATOM     28  O   UNL     1     -32.755  -5.321  22.060  0.00  0.00    -0.488 OA
ATOM     29  C   UNL     1     -34.128  -4.946  22.052  0.00  0.00    +0.277 C 
ENDBRANCH  23  28
ENDBRANCH   1  20
TORSDOF 5
ENDMDL
MODEL 5
REMARK VINA RESULT:    -0.041      3.996      5.538
REMARK INTER + INTRA:          -0.206
REMARK INTER:                   0.289
REMARK INTRA:                  -0.495
REMARK UNBOUND:                -0.153
REMARK  Name = 
REMARK  9 active torsions:
REMARK  status: ('A' for Active; 'I' for Inactive)
REMARK    1  A    between atoms: C_1  and  O_2
REMARK    2  A    between atoms: O_2  and  C_3
REMARK    3  A    between atoms: C_5  and  C_13
REMARK    4  A    between atoms: C_7  and  O_8
REMARK    5  A    between atoms: O_8  and  C_9
REMARK    6  A    between atoms: C_10  and  O_11
REMARK    7  A    between atoms: O_11  and  C_12
REMARK    8  A    between atoms: N_15  and  C_16
REMARK    9  A    between atoms: C_21  and  C_22
REMARK                            x       y       z     vdW  Elec       q    Type
REMARK                         _______ _______ _______ _____ _____    ______ ____
ROOT
ATOM      1  C   UNL     1     -32.340 -10.357  18.160  0.00  0.00    +0.248 C 
ATOM      2  O   UNL     1     -32.675 -11.568  18.035  0.00  0.00    -0.270 OA
ATOM      3  N   UNL     1     -31.291  -9.992  19.077  0.00  0.00    -0.281 N 
ATOM      4  H   UNL     1     -31.102  -8.982  19.258  0.00  0.00    +0.155 HD
ENDROOT
BRANCH   3   5
ATOM      5  C   UNL     1     -30.515 -10.943  19.827  0.00  0.00    +0.036 A 
ATOM      6  C   UNL     1     -30.801 -11.221  21.176  0.00  0.00    +0.027 A 
ATOM      7  C   UNL     1     -30.049 -12.170  21.877  0.00  0.00    +0.049 A 
ATOM      8  C   UNL     1     -29.012 -12.853  21.237  0.00  0.00    +0.143 A 
ATOM      9  O   UNL     1     -28.263 -13.805  21.940  0.00  0.00    -0.478 OA
ATOM     10  C   UNL     1     -27.004 -14.311  21.475  0.00  0.00    +0.256 C 
ATOM     11  C   UNL     1     -25.874 -13.468  22.062  0.00  0.00    +0.062 C 
ATOM     12  C   UNL     1     -26.930 -14.297  19.970  0.00  0.00    +0.258 C 
ATOM     13  O   UNL     1     -26.129 -15.062  19.370  0.00  0.00    -0.271 OA
ATOM     14  N   UNL     1     -27.721 -13.366  19.225  0.00  0.00    -0.279 N 
ATOM     15  C   UNL     1     -28.742 -12.608  19.883  0.00  0.00    +0.077 A 
ATOM     16  C   UNL     1     -29.498 -11.660  19.181  0.00  0.00    +0.050 A 
ATOM     17  H   UNL     1     -27.574 -13.270  18.195  0.00  0.00    +0.155 HD
ENDBRANCH   3   5
BRANCH   1  20
ATOM     18  C   UNL     1     -33.954  -8.602  15.213  0.00  0.00    +0.166 A 
ATOM     19  C   UNL     1     -33.284  -9.557  15.995  0.00  0.00    +0.062 A 
ATOM     20  C   UNL     1     -33.049  -9.331  17.358  0.00  0.00    +0.044 A 
ATOM     21  C   UNL     1     -33.515  -8.146  17.943  0.00  0.00    +0.062 A 
ATOM     22  C   UNL     1     -34.190  -7.173  17.177  0.00  0.00    +0.166 A 
ATOM     23  C   UNL     1     -34.406  -7.407  15.795  0.00  0.00    +0.204 A 
BRANCH  18  25
ATOM     24  C   UNL     1     -35.062  -9.793  13.307  0.00  0.00    +0.277 C 
ATOM     25  O   UNL     1     -34.190  -8.802  13.842  0.00  0.00    -0.491 OA
ENDBRANCH  18  25
BRANCH  22  26
ATOM     26  O   UNL     1     -34.652  -5.987  17.768  0.00  0.00    -0.491 OA
ATOM     27  C   UNL     1     -34.627  -5.702  19.164  0.00  0.00    +0.277 C 
ENDBRANCH  22  26
BRANCH  23  28
ATOM     28  O   UNL     1     -35.062  -6.499  14.942  0.00  0.00    -0.488 OA
ATOM     29  C   UNL     1     -34.804  -5.104  14.825  0.00  0.00    +0.277 C 
ENDBRANCH  23  28
ENDBRANCH   1  20
TORSDOF 5
ENDMDL
