MODEL 1
REMARK VINA RESULT:    -5.401      0.000      0.000
REMARK INTER + INTRA:          -8.058
REMARK INTER:                  -6.821
REMARK INTRA:                  -1.236
REMARK UNBOUND:                -1.236
REMARK  Name = 
REMARK  6 active torsions:
REMARK  status: ('A' for Active; 'I' for Inactive)
REMARK    1  A    between atoms: C_1  and  C_2
REMARK    2  A    between atoms: C_5  and  N_6
REMARK    3  A    between atoms: N_6  and  S_7
REMARK    4  A    between atoms: S_7  and  C_10
REMARK    5  A    between atoms: C_20  and  C_22
REMARK    6  A    between atoms: C_22  and  O_24
REMARK                            x       y       z     vdW  Elec       q    Type
REMARK                         _______ _______ _______ _____ _____    ______ ____
ROOT
ATOM      1  S   UNL     1     -28.555 -13.259  18.955  0.00  0.00    +0.072 S 
ATOM      2  O   UNL     1     -27.728 -14.076  19.909  0.00  0.00    -0.150 OA
ATOM      3  O   UNL     1     -27.665 -12.724  17.869  0.00  0.00    -0.150 OA
ENDROOT
BRANCH   1   4
ATOM      4  C   UNL     1     -29.309 -11.902  19.786  0.00  0.00    +0.112 A 
ATOM      5  C   UNL     1     -29.705 -12.048  21.139  0.00  0.00    +0.031 A 
ATOM      6  C   UNL     1     -30.281 -10.971  21.839  0.00  0.00    +0.031 A 
ATOM      7  C   UNL     1     -30.442  -9.771  21.153  0.00  0.00    +0.087 A 
ATOM      8  N   UNL     1     -30.956  -8.615  21.596  0.00  0.00    -0.288 N 
ATOM      9  C   UNL     1     -30.858  -7.807  20.514  0.00  0.00    +0.419 A 
ATOM     10  O   UNL     1     -31.238  -6.607  20.512  0.00  0.00    -0.223 OA
ATOM     11  O   UNL     1     -30.323  -8.401  19.461  0.00  0.00    -0.408 OA
ATOM     12  C   UNL     1     -30.061  -9.626  19.849  0.00  0.00    +0.159 A 
ATOM     13  C   UNL     1     -29.490 -10.667  19.125  0.00  0.00    +0.077 A 
ATOM     14  H   UNL     1     -31.335  -8.393  22.544  0.00  0.00    +0.172 HD
ENDBRANCH   1   4
BRANCH   1  15
ATOM     15  N   UNL     1     -29.781 -14.264  18.255  0.00  0.00    -0.215 N 
ATOM     16  H   UNL     1     -30.155 -15.049  18.832  0.00  0.00    +0.174 HD
BRANCH  15  21
ATOM     17  C   UNL     1     -31.330 -13.494  12.767  0.00  0.00    +0.044 C 
ATOM     18  C   UNL     1     -30.927 -13.681  14.201  0.00  0.00    -0.050 A 
ATOM     19  C   UNL     1     -29.813 -14.464  14.522  0.00  0.00    +0.005 A 
ATOM     20  C   UNL     1     -29.455 -14.664  15.855  0.00  0.00    +0.025 A 
ATOM     21  C   UNL     1     -30.217 -14.103  16.895  0.00  0.00    +0.062 A 
ATOM     22  C   UNL     1     -31.370 -13.343  16.580  0.00  0.00    +0.081 A 
ATOM     23  C   UNL     1     -31.706 -13.136  15.229  0.00  0.00    +0.020 A 
BRANCH  22  24
ATOM     24  C   UNL     1     -32.270 -12.809  17.629  0.00  0.00    +0.339 C 
ATOM     25  O   UNL     1     -33.136 -11.940  17.337  0.00  0.00    -0.245 OA
BRANCH  24  26
ATOM     26  O   UNL     1     -32.203 -13.288  18.935  0.00  0.00    -0.477 OA
ATOM     27  H   UNL     1     -31.486 -12.963  19.572  0.00  0.00    +0.295 HD
ENDBRANCH  24  26
ENDBRANCH  22  24
ENDBRANCH  15  21
ENDBRANCH   1  15
TORSDOF 5
ENDMDL
MODEL 2
REMARK VINA RESULT:    -5.358      2.314      4.405
REMARK INTER + INTRA:          -8.003
REMARK INTER:                  -6.779
REMARK INTRA:                  -1.224
REMARK UNBOUND:                -1.236
REMARK  Name = 
REMARK  6 active torsions:
REMARK  status: ('A' for Active; 'I' for Inactive)
REMARK    1  A    between atoms: C_1  and  C_2
REMARK    2  A    between atoms: C_5  and  N_6
REMARK    3  A    between atoms: N_6  and  S_7
REMARK    4  A    between atoms: S_7  and  C_10
REMARK    5  A    between atoms: C_20  and  C_22
REMARK    6  A    between atoms: C_22  and  O_24
REMARK                            x       y       z     vdW  Elec       q    Type
REMARK                         _______ _______ _______ _____ _____    ______ ____
ROOT
ATOM      1  S   UNL     1     -29.884 -10.388  18.371  0.00  0.00    +0.072 S 
ATOM      2  O   UNL     1     -29.035 -10.023  17.185  0.00  0.00    -0.150 OA
ATOM      3  O   UNL     1     -30.233  -9.138  19.127  0.00  0.00    -0.150 OA
ENDROOT
BRANCH   1   4
ATOM      4  C   UNL     1     -29.016 -11.476  19.449  0.00  0.00    +0.112 A 
ATOM      5  C   UNL     1     -29.567 -11.783  20.719  0.00  0.00    +0.031 A 
ATOM      6  C   UNL     1     -28.913 -12.675  21.590  0.00  0.00    +0.031 A 
ATOM      7  C   UNL     1     -27.715 -13.235  21.154  0.00  0.00    +0.087 A 
ATOM      8  N   UNL     1     -26.916 -14.103  21.791  0.00  0.00    -0.288 N 
ATOM      9  C   UNL     1     -25.914 -14.298  20.902  0.00  0.00    +0.419 A 
ATOM     10  O   UNL     1     -24.938 -15.062  21.120  0.00  0.00    -0.223 OA
ATOM     11  O   UNL     1     -26.061 -13.608  19.784  0.00  0.00    -0.408 OA
ATOM     12  C   UNL     1     -27.181 -12.942  19.932  0.00  0.00    +0.159 A 
ATOM     13  C   UNL     1     -27.798 -12.065  19.046  0.00  0.00    +0.077 A 
ATOM     14  H   UNL     1     -27.039 -14.525  22.739  0.00  0.00    +0.172 HD
ENDBRANCH   1   4
BRANCH   1  15
ATOM     15  N   UNL     1     -31.337 -11.155  17.820  0.00  0.00    -0.215 N 
ATOM     16  H   UNL     1     -32.098 -11.315  18.517  0.00  0.00    +0.174 HD
BRANCH  15  21
ATOM     17  C   UNL     1     -32.135 -13.122  12.472  0.00  0.00    +0.044 C 
ATOM     18  C   UNL     1     -31.934 -12.620  13.872  0.00  0.00    -0.050 A 
ATOM     19  C   UNL     1     -32.199 -11.282  14.185  0.00  0.00    +0.005 A 
ATOM     20  C   UNL     1     -31.984 -10.806  15.478  0.00  0.00    +0.025 A 
ATOM     21  C   UNL     1     -31.478 -11.653  16.480  0.00  0.00    +0.062 A 
ATOM     22  C   UNL     1     -31.168 -12.998  16.162  0.00  0.00    +0.081 A 
ATOM     23  C   UNL     1     -31.409 -13.467  14.856  0.00  0.00    +0.020 A 
BRANCH  22  24
ATOM     24  C   UNL     1     -30.541 -13.914  17.144  0.00  0.00    +0.339 C 
ATOM     25  O   UNL     1     -31.033 -14.038  18.297  0.00  0.00    -0.245 OA
BRANCH  24  26
ATOM     26  O   UNL     1     -29.431 -14.680  16.793  0.00  0.00    -0.477 OA
ATOM     27  H   UNL     1     -29.187 -15.513  17.314  0.00  0.00    +0.295 HD
ENDBRANCH  24  26
ENDBRANCH  22  24
ENDBRANCH  15  21
ENDBRANCH   1  15
TORSDOF 5
ENDMDL
MODEL 3
REMARK VINA RESULT:    -5.319      2.592      4.291
REMARK INTER + INTRA:          -7.955
REMARK INTER:                  -6.796
REMARK INTRA:                  -1.159
REMARK UNBOUND:                -1.236
REMARK  Name = 
REMARK  6 active torsions:
REMARK  status: ('A' for Active; 'I' for Inactive)
REMARK    1  A    between atoms: C_1  and  C_2
REMARK    2  A    between atoms: C_5  and  N_6
REMARK    3  A    between atoms: N_6  and  S_7
REMARK    4  A    between atoms: S_7  and  C_10
REMARK    5  A    between atoms: C_20  and  C_22
REMARK    6  A    between atoms: C_22  and  O_24
REMARK                            x       y       z     vdW  Elec       q    Type
REMARK                         _______ _______ _______ _____ _____    ______ ____
ROOT
ATOM      1  S   UNL     1     -31.605 -12.054  19.423  0.00  0.00    +0.072 S 
ATOM      2  O   UNL     1     -31.881 -10.694  18.843  0.00  0.00    -0.150 OA
ATOM      3  O   UNL     1     -32.194 -12.128  20.802  0.00  0.00    -0.150 OA
ENDROOT
BRANCH   1   4
ATOM      4  C   UNL     1     -29.872 -12.345  19.533  0.00  0.00    +0.112 A 
ATOM      5  C   UNL     1     -29.000 -11.715  18.609  0.00  0.00    +0.031 A 
ATOM      6  C   UNL     1     -27.608 -11.903  18.692  0.00  0.00    +0.031 A 
ATOM      7  C   UNL     1     -27.131 -12.725  19.709  0.00  0.00    +0.087 A 
ATOM      8  N   UNL     1     -25.862 -13.053  19.995  0.00  0.00    -0.288 N 
ATOM      9  C   UNL     1     -25.995 -13.862  21.072  0.00  0.00    +0.419 A 
ATOM     10  O   UNL     1     -25.018 -14.394  21.660  0.00  0.00    -0.223 OA
ATOM     11  O   UNL     1     -27.252 -14.038  21.446  0.00  0.00    -0.408 OA
ATOM     12  C   UNL     1     -27.966 -13.333  20.601  0.00  0.00    +0.159 A 
ATOM     13  C   UNL     1     -29.347 -13.171  20.550  0.00  0.00    +0.077 A 
ATOM     14  H   UNL     1     -24.987 -12.755  19.507  0.00  0.00    +0.172 HD
ENDBRANCH   1   4
BRANCH   1  15
ATOM     15  N   UNL     1     -32.333 -13.263  18.417  0.00  0.00    -0.215 N 
ATOM     16  H   UNL     1     -33.035 -13.901  18.854  0.00  0.00    +0.174 HD
BRANCH  15  21
ATOM     17  C   UNL     1     -30.506 -13.997  13.011  0.00  0.00    +0.044 C 
ATOM     18  C   UNL     1     -30.981 -13.791  14.420  0.00  0.00    -0.050 A 
ATOM     19  C   UNL     1     -30.468 -14.579  15.456  0.00  0.00    +0.005 A 
ATOM     20  C   UNL     1     -30.930 -14.410  16.762  0.00  0.00    +0.025 A 
ATOM     21  C   UNL     1     -31.931 -13.467  17.053  0.00  0.00    +0.062 A 
ATOM     22  C   UNL     1     -32.484 -12.694  16.003  0.00  0.00    +0.081 A 
ATOM     23  C   UNL     1     -31.993 -12.863  14.695  0.00  0.00    +0.020 A 
BRANCH  22  24
ATOM     24  C   UNL     1     -33.609 -11.754  16.226  0.00  0.00    +0.339 C 
ATOM     25  O   UNL     1     -34.798 -12.143  16.074  0.00  0.00    -0.245 OA
BRANCH  24  26
ATOM     26  O   UNL     1     -33.370 -10.448  16.647  0.00  0.00    -0.477 OA
ATOM     27  H   UNL     1     -33.473 -10.188  17.620  0.00  0.00    +0.295 HD
ENDBRANCH  24  26
ENDBRANCH  22  24
ENDBRANCH  15  21
ENDBRANCH   1  15
TORSDOF 5
ENDMDL
MODEL 4
REMARK VINA RESULT:    -5.180      2.529      4.397
REMARK INTER + INTRA:          -7.779
REMARK INTER:                  -6.685
REMARK INTRA:                  -1.095
REMARK UNBOUND:                -1.236
REMARK  Name = 
REMARK  6 active torsions:
REMARK  status: ('A' for Active; 'I' for Inactive)
REMARK    1  A    between atoms: C_1  and  C_2
REMARK    2  A    between atoms: C_5  and  N_6
REMARK    3  A    between atoms: N_6  and  S_7
REMARK    4  A    between atoms: S_7  and  C_10
REMARK    5  A    between atoms: C_20  and  C_22
REMARK    6  A    between atoms: C_22  and  O_24
REMARK                            x       y       z     vdW  Elec       q    Type
REMARK                         _______ _______ _______ _____ _____    ______ ____
ROOT
ATOM      1  S   UNL     1     -30.196 -10.259  18.124  0.00  0.00    +0.072 S 
ATOM      2  O   UNL     1     -29.382  -9.875  16.919  0.00  0.00    -0.150 OA
ATOM      3  O   UNL     1     -30.526  -9.020  18.908  0.00  0.00    -0.150 OA
ENDROOT
BRANCH   1   4
ATOM      4  C   UNL     1     -29.295 -11.360  19.162  0.00  0.00    +0.112 A 
ATOM      5  C   UNL     1     -29.922 -11.900  20.314  0.00  0.00    +0.031 A 
ATOM      6  C   UNL     1     -29.238 -12.808  21.144  0.00  0.00    +0.031 A 
ATOM      7  C   UNL     1     -27.936 -13.148  20.789  0.00  0.00    +0.087 A 
ATOM      8  N   UNL     1     -27.090 -13.983  21.409  0.00  0.00    -0.288 N 
ATOM      9  C   UNL     1     -25.986 -13.930  20.626  0.00  0.00    +0.419 A 
ATOM     10  O   UNL     1     -24.938 -14.585  20.865  0.00  0.00    -0.223 OA
ATOM     11  O   UNL     1     -26.117 -13.123  19.587  0.00  0.00    -0.408 OA
ATOM     12  C   UNL     1     -27.328 -12.630  19.680  0.00  0.00    +0.159 A 
ATOM     13  C   UNL     1     -27.972 -11.731  18.837  0.00  0.00    +0.077 A 
ATOM     14  H   UNL     1     -27.245 -14.539  22.280  0.00  0.00    +0.172 HD
ENDBRANCH   1   4
BRANCH   1  15
ATOM     15  N   UNL     1     -31.663 -11.022  17.605  0.00  0.00    -0.215 N 
ATOM     16  H   UNL     1     -32.432 -11.123  18.303  0.00  0.00    +0.174 HD
BRANCH  15  21
ATOM     17  C   UNL     1     -31.999 -13.281  12.324  0.00  0.00    +0.044 C 
ATOM     18  C   UNL     1     -31.907 -12.680  13.696  0.00  0.00    -0.050 A 
ATOM     19  C   UNL     1     -31.263 -13.373  14.726  0.00  0.00    +0.005 A 
ATOM     20  C   UNL     1     -31.202 -12.829  16.009  0.00  0.00    +0.025 A 
ATOM     21  C   UNL     1     -31.805 -11.592  16.294  0.00  0.00    +0.062 A 
ATOM     22  C   UNL     1     -32.495 -10.902  15.267  0.00  0.00    +0.081 A 
ATOM     23  C   UNL     1     -32.530 -11.456  13.973  0.00  0.00    +0.020 A 
BRANCH  22  24
ATOM     24  C   UNL     1     -33.235  -9.644  15.523  0.00  0.00    +0.339 C 
ATOM     25  O   UNL     1     -34.314  -9.410  14.916  0.00  0.00    -0.245 OA
BRANCH  24  26
ATOM     26  O   UNL     1     -32.774  -8.728  16.465  0.00  0.00    -0.477 OA
ATOM     27  H   UNL     1     -32.252  -9.034  17.278  0.00  0.00    +0.295 HD
ENDBRANCH  24  26
ENDBRANCH  22  24
ENDBRANCH  15  21
ENDBRANCH   1  15
TORSDOF 5
ENDMDL
MODEL 5
REMARK VINA RESULT:    -4.824      1.656      2.726
REMARK INTER + INTRA:          -7.329
REMARK INTER:                  -6.135
REMARK INTRA:                  -1.194
REMARK UNBOUND:                -1.236
REMARK  Name = 
REMARK  6 active torsions:
REMARK  status: ('A' for Active; 'I' for Inactive)
REMARK    1  A    between atoms: C_1  and  C_2
REMARK    2  A    between atoms: C_5  and  N_6
REMARK    3  A    between atoms: N_6  and  S_7
REMARK    4  A    between atoms: S_7  and  C_10
REMARK    5  A    between atoms: C_20  and  C_22
REMARK    6  A    between atoms: C_22  and  O_24
REMARK                            x       y       z     vdW  Elec       q    Type
REMARK                         _______ _______ _______ _____ _____    ______ ____
ROOT
ATOM      1  S   UNL     1     -30.254 -13.057  18.167  0.00  0.00    +0.072 S 
ATOM      2  O   UNL     1     -31.474 -13.917  17.983  0.00  0.00    -0.150 OA
ATOM      3  O   UNL     1     -29.135 -13.901  18.705  0.00  0.00    -0.150 OA
ENDROOT
BRANCH   1   4
ATOM      4  C   UNL     1     -30.575 -11.753  19.305  0.00  0.00    +0.112 A 
ATOM      5  C   UNL     1     -31.150 -12.054  20.565  0.00  0.00    +0.031 A 
ATOM      6  C   UNL     1     -31.389 -11.037  21.508  0.00  0.00    +0.031 A 
ATOM      7  C   UNL     1     -31.038  -9.737  21.153  0.00  0.00    +0.087 A 
ATOM      8  N   UNL     1     -31.162  -8.611  21.870  0.00  0.00    -0.288 N 
ATOM      9  C   UNL     1     -30.663  -7.667  21.037  0.00  0.00    +0.419 A 
ATOM     10  O   UNL     1     -30.595  -6.447  21.339  0.00  0.00    -0.223 OA
ATOM     11  O   UNL     1     -30.252  -8.153  19.878  0.00  0.00    -0.408 OA
ATOM     12  C   UNL     1     -30.484  -9.442  19.940  0.00  0.00    +0.159 A 
ATOM     13  C   UNL     1     -30.234 -10.420  18.984  0.00  0.00    +0.077 A 
ATOM     14  H   UNL     1     -31.546  -8.492  22.835  0.00  0.00    +0.172 HD
ENDBRANCH   1   4
BRANCH   1  15
ATOM     15  N   UNL     1     -29.788 -12.389  16.636  0.00  0.00    -0.215 N 
ATOM     16  H   UNL     1     -28.989 -11.717  16.621  0.00  0.00    +0.174 HD
BRANCH  15  21
ATOM     17  C   UNL     1     -32.906 -13.533  11.938  0.00  0.00    +0.044 C 
ATOM     18  C   UNL     1     -32.094 -13.248  13.167  0.00  0.00    -0.050 A 
ATOM     19  C   UNL     1     -32.429 -12.175  14.000  0.00  0.00    +0.005 A 
ATOM     20  C   UNL     1     -31.657 -11.890  15.126  0.00  0.00    +0.025 A 
ATOM     21  C   UNL     1     -30.520 -12.658  15.430  0.00  0.00    +0.062 A 
ATOM     22  C   UNL     1     -30.149 -13.721  14.570  0.00  0.00    +0.081 A 
ATOM     23  C   UNL     1     -30.950 -14.007  13.448  0.00  0.00    +0.020 A 
BRANCH  22  24
ATOM     24  C   UNL     1     -28.909 -14.506  14.779  0.00  0.00    +0.339 C 
ATOM     25  O   UNL     1     -28.258 -14.935  13.789  0.00  0.00    -0.245 OA
BRANCH  24  26
ATOM     26  O   UNL     1     -28.425 -14.741  16.063  0.00  0.00    -0.477 OA
ATOM     27  H   UNL     1     -28.492 -15.659  16.485  0.00  0.00    +0.295 HD
ENDBRANCH  24  26
ENDBRANCH  22  24
ENDBRANCH  15  21
ENDBRANCH   1  15
TORSDOF 5
ENDMDL
MODEL 6
REMARK VINA RESULT:    -4.704      2.693      6.442
REMARK INTER + INTRA:          -7.178
REMARK INTER:                  -5.894
REMARK INTRA:                  -1.284
REMARK UNBOUND:                -1.236
REMARK  Name = 
REMARK  6 active torsions:
REMARK  status: ('A' for Active; 'I' for Inactive)
REMARK    1  A    between atoms: C_1  and  C_2
REMARK    2  A    between atoms: C_5  and  N_6
REMARK    3  A    between atoms: N_6  and  S_7
REMARK    4  A    between atoms: S_7  and  C_10
REMARK    5  A    between atoms: C_20  and  C_22
REMARK    6  A    between atoms: C_22  and  O_24
REMARK                            x       y       z     vdW  Elec       q    Type
REMARK                         _______ _______ _______ _____ _____    ______ ____
ROOT
ATOM      1  S   UNL     1     -31.465 -11.681  19.227  0.00  0.00    +0.072 S 
ATOM      2  O   UNL     1     -32.253 -12.486  20.223  0.00  0.00    -0.150 OA
ATOM      3  O   UNL     1     -32.235 -10.438  18.882  0.00  0.00    -0.150 OA
ENDROOT
BRANCH   1   4
ATOM      4  C   UNL     1     -31.192 -12.603  17.753  0.00  0.00    +0.112 A 
ATOM      5  C   UNL     1     -30.800 -13.963  17.846  0.00  0.00    +0.031 A 
ATOM      6  C   UNL     1     -30.606 -14.735  16.685  0.00  0.00    +0.031 A 
ATOM      7  C   UNL     1     -30.813 -14.113  15.457  0.00  0.00    +0.087 A 
ATOM      8  N   UNL     1     -30.697 -14.630  14.225  0.00  0.00    -0.288 N 
ATOM      9  C   UNL     1     -31.018 -13.584  13.428  0.00  0.00    +0.419 A 
ATOM     10  O   UNL     1     -31.032 -13.654  12.171  0.00  0.00    -0.223 OA
ATOM     11  O   UNL     1     -31.317 -12.484  14.098  0.00  0.00    -0.408 OA
ATOM     12  C   UNL     1     -31.191 -12.804  15.363  0.00  0.00    +0.159 A 
ATOM     13  C   UNL     1     -31.392 -12.010  16.487  0.00  0.00    +0.077 A 
ATOM     14  H   UNL     1     -30.427 -15.601  13.951  0.00  0.00    +0.172 HD
ENDBRANCH   1   4
BRANCH   1  15
ATOM     15  N   UNL     1     -29.941 -11.240  19.926  0.00  0.00    -0.215 N 
ATOM     16  H   UNL     1     -29.766 -10.229  20.114  0.00  0.00    +0.174 HD
BRANCH  15  21
ATOM     17  C   UNL     1     -25.742 -15.004  21.067  0.00  0.00    +0.044 C 
ATOM     18  C   UNL     1     -26.828 -14.012  20.771  0.00  0.00    -0.050 A 
ATOM     19  C   UNL     1     -28.055 -14.093  21.437  0.00  0.00    +0.005 A 
ATOM     20  C   UNL     1     -29.077 -13.190  21.141  0.00  0.00    +0.025 A 
ATOM     21  C   UNL     1     -28.899 -12.202  20.157  0.00  0.00    +0.062 A 
ATOM     22  C   UNL     1     -27.674 -12.139  19.449  0.00  0.00    +0.081 A 
ATOM     23  C   UNL     1     -26.647 -13.046  19.773  0.00  0.00    +0.020 A 
BRANCH  22  24
ATOM     24  C   UNL     1     -27.458 -11.187  18.333  0.00  0.00    +0.339 C 
ATOM     25  O   UNL     1     -28.444 -10.660  17.752  0.00  0.00    -0.245 OA
BRANCH  24  26
ATOM     26  O   UNL     1     -26.170 -10.830  17.943  0.00  0.00    -0.477 OA
ATOM     27  H   UNL     1     -25.789 -11.140  17.057  0.00  0.00    +0.295 HD
ENDBRANCH  24  26
ENDBRANCH  22  24
ENDBRANCH  15  21
ENDBRANCH   1  15
TORSDOF 5
ENDMDL
MODEL 7
REMARK VINA RESULT:    -4.597      3.089      5.117
REMARK INTER + INTRA:          -7.042
REMARK INTER:                  -5.675
REMARK INTRA:                  -1.367
REMARK UNBOUND:                -1.236
REMARK  Name = 
REMARK  6 active torsions:
REMARK  status: ('A' for Active; 'I' for Inactive)
REMARK    1  A    between atoms: C_1  and  C_2
REMARK    2  A    between atoms: C_5  and  N_6
REMARK    3  A    between atoms: N_6  and  S_7
REMARK    4  A    between atoms: S_7  and  C_10
REMARK    5  A    between atoms: C_20  and  C_22
REMARK    6  A    between atoms: C_22  and  O_24
REMARK                            x       y       z     vdW  Elec       q    Type
REMARK                         _______ _______ _______ _____ _____    ______ ____
ROOT
ATOM      1  S   UNL     1     -32.354  -9.378  19.473  0.00  0.00    +0.072 S 
ATOM      2  O   UNL     1     -32.004  -8.397  20.558  0.00  0.00    -0.150 OA
ATOM      3  O   UNL     1     -33.774  -9.831  19.661  0.00  0.00    -0.150 OA
ENDROOT
BRANCH   1   4
ATOM      4  C   UNL     1     -31.299 -10.786  19.538  0.00  0.00    +0.112 A 
ATOM      5  C   UNL     1     -31.862 -12.083  19.434  0.00  0.00    +0.031 A 
ATOM      6  C   UNL     1     -31.041 -13.226  19.450  0.00  0.00    +0.031 A 
ATOM      7  C   UNL     1     -29.668 -13.029  19.572  0.00  0.00    +0.087 A 
ATOM      8  N   UNL     1     -28.690 -13.946  19.608  0.00  0.00    -0.288 N 
ATOM      9  C   UNL     1     -27.573 -13.190  19.731  0.00  0.00    +0.419 A 
ATOM     10  O   UNL     1     -26.415 -13.678  19.800  0.00  0.00    -0.223 OA
ATOM     11  O   UNL     1     -27.819 -11.891  19.771  0.00  0.00    -0.408 OA
ATOM     12  C   UNL     1     -29.122 -11.781  19.673  0.00  0.00    +0.159 A 
ATOM     13  C   UNL     1     -29.901 -10.629  19.661  0.00  0.00    +0.077 A 
ATOM     14  H   UNL     1     -28.772 -14.986  19.553  0.00  0.00    +0.172 HD
ENDBRANCH   1   4
BRANCH   1  15
ATOM     15  N   UNL     1     -32.194  -8.605  17.930  0.00  0.00    -0.215 N 
ATOM     16  H   UNL     1     -31.675  -7.700  17.890  0.00  0.00    +0.174 HD
BRANCH  15  21
ATOM     17  C   UNL     1     -34.885 -10.780  13.333  0.00  0.00    +0.044 C 
ATOM     18  C   UNL     1     -34.180 -10.226  14.536  0.00  0.00    -0.050 A 
ATOM     19  C   UNL     1     -34.814  -9.282  15.350  0.00  0.00    +0.005 A 
ATOM     20  C   UNL     1     -34.149  -8.743  16.452  0.00  0.00    +0.025 A 
ATOM     21  C   UNL     1     -32.827  -9.120  16.747  0.00  0.00    +0.062 A 
ATOM     22  C   UNL     1     -32.163 -10.044  15.904  0.00  0.00    +0.081 A 
ATOM     23  C   UNL     1     -32.855 -10.593  14.808  0.00  0.00    +0.020 A 
BRANCH  22  24
ATOM     24  C   UNL     1     -30.740 -10.408  16.103  0.00  0.00    +0.339 C 
ATOM     25  O   UNL     1     -29.897  -9.522  16.406  0.00  0.00    -0.245 OA
BRANCH  24  26
ATOM     26  O   UNL     1     -30.325 -11.734  16.001  0.00  0.00    -0.477 OA
ATOM     27  H   UNL     1     -29.378 -11.963  15.725  0.00  0.00    +0.295 HD
ENDBRANCH  24  26
ENDBRANCH  22  24
ENDBRANCH  15  21
ENDBRANCH   1  15
TORSDOF 5
ENDMDL
MODEL 8
REMARK VINA RESULT:    -4.576      3.086      6.208
REMARK INTER + INTRA:          -7.016
REMARK INTER:                  -5.808
REMARK INTRA:                  -1.209
REMARK UNBOUND:                -1.236
REMARK  Name = 
REMARK  6 active torsions:
REMARK  status: ('A' for Active; 'I' for Inactive)
REMARK    1  A    between atoms: C_1  and  C_2
REMARK    2  A    between atoms: C_5  and  N_6
REMARK    3  A    between atoms: N_6  and  S_7
REMARK    4  A    between atoms: S_7  and  C_10
REMARK    5  A    between atoms: C_20  and  C_22
REMARK    6  A    between atoms: C_22  and  O_24
REMARK                            x       y       z     vdW  Elec       q    Type
REMARK                         _______ _______ _______ _____ _____    ______ ____
ROOT
ATOM      1  S   UNL     1     -29.477 -13.830  16.801  0.00  0.00    +0.072 S 
ATOM      2  O   UNL     1     -28.182 -13.094  17.007  0.00  0.00    -0.150 OA
ATOM      3  O   UNL     1     -29.218 -15.059  15.977  0.00  0.00    -0.150 OA
ENDROOT
BRANCH   1   4
ATOM      4  C   UNL     1     -30.643 -12.819  15.954  0.00  0.00    +0.112 A 
ATOM      5  C   UNL     1     -30.654 -11.421  16.193  0.00  0.00    +0.031 A 
ATOM      6  C   UNL     1     -31.553 -10.582  15.507  0.00  0.00    +0.031 A 
ATOM      7  C   UNL     1     -32.419 -11.179  14.595  0.00  0.00    +0.087 A 
ATOM      8  N   UNL     1     -33.353 -10.600  13.825  0.00  0.00    -0.288 N 
ATOM      9  C   UNL     1     -33.877 -11.649  13.148  0.00  0.00    +0.419 A 
ATOM     10  O   UNL     1     -34.802 -11.532  12.302  0.00  0.00    -0.223 OA
ATOM     11  O   UNL     1     -33.321 -12.808  13.460  0.00  0.00    -0.408 OA
ATOM     12  C   UNL     1     -32.412 -12.524  14.362  0.00  0.00    +0.159 A 
ATOM     13  C   UNL     1     -31.539 -13.384  15.020  0.00  0.00    +0.077 A 
ATOM     14  H   UNL     1     -33.611  -9.590  13.763  0.00  0.00    +0.172 HD
ENDBRANCH   1   4
BRANCH   1  15
ATOM     15  N   UNL     1     -30.123 -14.294  18.341  0.00  0.00    -0.215 N 
ATOM     16  H   UNL     1     -30.264 -15.312  18.523  0.00  0.00    +0.174 HD
BRANCH  15  21
ATOM     17  C   UNL     1     -31.847 -10.259  22.062  0.00  0.00    +0.044 C 
ATOM     18  C   UNL     1     -31.386 -11.304  21.089  0.00  0.00    -0.050 A 
ATOM     19  C   UNL     1     -32.267 -11.806  20.126  0.00  0.00    +0.005 A 
ATOM     20  C   UNL     1     -31.850 -12.799  19.240  0.00  0.00    +0.025 A 
ATOM     21  C   UNL     1     -30.549 -13.326  19.314  0.00  0.00    +0.062 A 
ATOM     22  C   UNL     1     -29.662 -12.852  20.312  0.00  0.00    +0.081 A 
ATOM     23  C   UNL     1     -30.094 -11.836  21.186  0.00  0.00    +0.020 A 
BRANCH  22  24
ATOM     24  C   UNL     1     -28.313 -13.434  20.507  0.00  0.00    +0.339 C 
ATOM     25  O   UNL     1     -27.802 -13.475  21.658  0.00  0.00    -0.245 OA
BRANCH  24  26
ATOM     26  O   UNL     1     -27.613 -13.980  19.433  0.00  0.00    -0.477 OA
ATOM     27  H   UNL     1     -26.683 -14.360  19.557  0.00  0.00    +0.295 HD
ENDBRANCH  24  26
ENDBRANCH  22  24
ENDBRANCH  15  21
ENDBRANCH   1  15
TORSDOF 5
ENDMDL
MODEL 9
REMARK VINA RESULT:    -4.472      2.775      6.632
REMARK INTER + INTRA:          -6.884
REMARK INTER:                  -5.850
REMARK INTRA:                  -1.035
REMARK UNBOUND:                -1.236
REMARK  Name = 
REMARK  6 active torsions:
REMARK  status: ('A' for Active; 'I' for Inactive)
REMARK    1  A    between atoms: C_1  and  C_2
REMARK    2  A    between atoms: C_5  and  N_6
REMARK    3  A    between atoms: N_6  and  S_7
REMARK    4  A    between atoms: S_7  and  C_10
REMARK    5  A    between atoms: C_20  and  C_22
REMARK    6  A    between atoms: C_22  and  O_24
REMARK                            x       y       z     vdW  Elec       q    Type
REMARK                         _______ _______ _______ _____ _____    ______ ____
ROOT
ATOM      1  S   UNL     1     -29.513 -13.132  16.873  0.00  0.00    +0.072 S 
ATOM      2  O   UNL     1     -29.071 -11.742  17.240  0.00  0.00    -0.150 OA
ATOM      3  O   UNL     1     -28.300 -13.986  16.637  0.00  0.00    -0.150 OA
ENDROOT
BRANCH   1   4
ATOM      4  C   UNL     1     -30.484 -13.112  15.405  0.00  0.00    +0.112 A 
ATOM      5  C   UNL     1     -30.156 -13.991  14.342  0.00  0.00    +0.031 A 
ATOM      6  C   UNL     1     -30.934 -14.021  13.169  0.00  0.00    +0.031 A 
ATOM      7  C   UNL     1     -32.025 -13.160  13.100  0.00  0.00    +0.087 A 
ATOM      8  N   UNL     1     -32.909 -13.006  12.103  0.00  0.00    -0.288 N 
ATOM      9  C   UNL     1     -33.740 -12.050  12.581  0.00  0.00    +0.419 A 
ATOM     10  O   UNL     1     -34.728 -11.609  11.938  0.00  0.00    -0.223 OA
ATOM     11  O   UNL     1     -33.412 -11.626  13.791  0.00  0.00    -0.408 OA
ATOM     12  C   UNL     1     -32.344 -12.312  14.121  0.00  0.00    +0.159 A 
ATOM     13  C   UNL     1     -31.600 -12.254  15.295  0.00  0.00    +0.077 A 
ATOM     14  H   UNL     1     -32.947 -13.503  11.184  0.00  0.00    +0.172 HD
ENDBRANCH   1   4
BRANCH   1  15
ATOM     15  N   UNL     1     -30.444 -13.798  18.175  0.00  0.00    -0.215 N 
ATOM     16  H   UNL     1     -30.618 -14.828  18.171  0.00  0.00    +0.174 HD
BRANCH  15  21
ATOM     17  C   UNL     1     -32.855 -10.308  22.062  0.00  0.00    +0.044 C 
ATOM     18  C   UNL     1     -32.214 -11.211  21.049  0.00  0.00    -0.050 A 
ATOM     19  C   UNL     1     -32.901 -11.556  19.880  0.00  0.00    +0.005 A 
ATOM     20  C   UNL     1     -32.319 -12.418  18.951  0.00  0.00    +0.025 A 
ATOM     21  C   UNL     1     -31.049 -12.973  19.183  0.00  0.00    +0.062 A 
ATOM     22  C   UNL     1     -30.364 -12.662  20.383  0.00  0.00    +0.081 A 
ATOM     23  C   UNL     1     -30.957 -11.774  21.301  0.00  0.00    +0.020 A 
BRANCH  22  24
ATOM     24  C   UNL     1     -29.067 -13.288  20.734  0.00  0.00    +0.339 C 
ATOM     25  O   UNL     1     -28.420 -12.882  21.736  0.00  0.00    -0.245 OA
BRANCH  24  26
ATOM     26  O   UNL     1     -28.570 -14.357  19.992  0.00  0.00    -0.477 OA
ATOM     27  H   UNL     1     -28.686 -15.311  20.311  0.00  0.00    +0.295 HD
ENDBRANCH  24  26
ENDBRANCH  22  24
ENDBRANCH  15  21
ENDBRANCH   1  15
TORSDOF 5
ENDMDL
