MODEL 1
REMARK VINA RESULT:    -4.810      0.000      0.000
REMARK INTER + INTRA:          -6.858
REMARK INTER:                  -5.935
REMARK INTRA:                  -0.923
REMARK UNBOUND:                -0.923
REMARK  Name = 
REMARK  6 active torsions:
REMARK  status: ('A' for Active; 'I' for Inactive)
REMARK    1  A    between atoms: C_1  and  C_2
REMARK    2  A    between atoms: C_8  and  C_10
REMARK    3  A    between atoms: C_13  and  S_16
REMARK    4  A    between atoms: S_16  and  N_19
REMARK    5  A    between atoms: N_19  and  C_20
REMARK    6  A    between atoms: C_25  and  C_26
REMARK                            x       y       z     vdW  Elec       q    Type
REMARK                         _______ _______ _______ _____ _____    ______ ____
ROOT
ATOM      1  C   UNL     1     -32.974  -9.926  16.651  0.00  0.00    +0.037 A 
ATOM      2  C   UNL     1     -31.755 -10.111  15.972  0.00  0.00    +0.015 A 
ATOM      3  C   UNL     1     -31.685 -10.942  14.851  0.00  0.00    +0.029 A 
ATOM      4  C   UNL     1     -32.832 -11.596  14.385  0.00  0.00    +0.109 A 
ATOM      5  C   UNL     1     -34.049 -11.414  15.051  0.00  0.00    +0.029 A 
ATOM      6  C   UNL     1     -34.124 -10.583  16.173  0.00  0.00    +0.015 A 
ENDROOT
BRANCH   1  14
ATOM      7  C   UNL     1     -29.744  -5.775  21.933  0.00  0.00    +0.066 C 
ATOM      8  C   UNL     1     -30.767  -6.664  21.305  0.00  0.00    +0.047 A 
ATOM      9  C   UNL     1     -31.882  -7.136  21.992  0.00  0.00    +0.071 A 
ATOM     10  S   UNL     1     -32.790  -8.065  20.926  0.00  0.00    -0.060 S 
ATOM     11  C   UNL     1     -31.738  -7.807  19.634  0.00  0.00    +0.165 A 
ATOM     12  N   UNL     1     -30.691  -7.035  19.997  0.00  0.00    -0.230 NA
ATOM     13  N   UNL     1     -31.863  -8.364  18.318  0.00  0.00    -0.261 N 
ATOM     14  C   UNL     1     -33.040  -9.034  17.834  0.00  0.00    +0.250 C 
ATOM     15  O   UNL     1     -34.152  -8.836  18.395  0.00  0.00    -0.270 OA
ATOM     16  H   UNL     1     -31.059  -8.229  17.666  0.00  0.00    +0.157 HD
ENDBRANCH   1  14
BRANCH   4  17
ATOM     17  S   UNL     1     -32.764 -12.624  12.957  0.00  0.00    +0.072 S 
ATOM     18  O   UNL     1     -34.134 -12.809  12.365  0.00  0.00    -0.150 OA
ATOM     19  O   UNL     1     -31.874 -11.971  11.938  0.00  0.00    -0.150 OA
BRANCH  17  20
ATOM     20  N   UNL     1     -32.113 -14.175  13.380  0.00  0.00    -0.216 N 
ATOM     21  H   UNL     1     -32.786 -14.973  13.403  0.00  0.00    +0.174 HD
BRANCH  20  22
ATOM     22  C   UNL     1     -30.702 -14.412  13.543  0.00  0.00    +0.051 A 
ATOM     23  C   UNL     1     -29.863 -14.510  12.416  0.00  0.00    +0.025 A 
ATOM     24  C   UNL     1     -28.494 -14.735  12.565  0.00  0.00    +0.002 A 
ATOM     25  C   UNL     1     -27.939 -14.857  13.838  0.00  0.00    +0.000 A 
ATOM     26  C   UNL     1     -28.751 -14.756  14.967  0.00  0.00    +0.005 A 
ATOM     27  C   UNL     1     -30.135 -14.540  14.835  0.00  0.00    -0.028 A 
ATOM     28  C   UNL     1     -30.986 -14.455  16.074  0.00  0.00    +0.046 C 
ENDBRANCH  20  22
ENDBRANCH  17  20
ENDBRANCH   4  17
TORSDOF 4
ENDMDL
MODEL 2
REMARK VINA RESULT:    -3.415      3.921      6.098
REMARK INTER + INTRA:          -5.136
REMARK INTER:                  -4.993
REMARK INTRA:                  -0.143
REMARK UNBOUND:                -0.923
REMARK  Name = 
REMARK  6 active torsions:
REMARK  status: ('A' for Active; 'I' for Inactive)
REMARK    1  A    between atoms: C_1  and  C_2
REMARK    2  A    between atoms: C_8  and  C_10
REMARK    3  A    between atoms: C_13  and  S_16
REMARK    4  A    between atoms: S_16  and  N_19
REMARK    5  A    between atoms: N_19  and  C_20
REMARK    6  A    between atoms: C_25  and  C_26
REMARK                            x       y       z     vdW  Elec       q    Type
REMARK                         _______ _______ _______ _____ _____    ______ ____
ROOT
ATOM      1  C   UNL     1     -30.520 -11.861  16.822  0.00  0.00    +0.037 A 
ATOM      2  C   UNL     1     -30.913 -10.666  16.191  0.00  0.00    +0.015 A 
ATOM      3  C   UNL     1     -31.763 -10.694  15.083  0.00  0.00    +0.029 A 
ATOM      4  C   UNL     1     -32.240 -11.915  14.592  0.00  0.00    +0.109 A 
ATOM      5  C   UNL     1     -31.859 -13.107  15.216  0.00  0.00    +0.029 A 
ATOM      6  C   UNL     1     -31.009 -13.083  16.326  0.00  0.00    +0.015 A 
ENDROOT
BRANCH   1  14
ATOM      7  C   UNL     1     -25.252 -14.835  21.178  0.00  0.00    +0.066 C 
ATOM      8  C   UNL     1     -26.455 -14.027  20.817  0.00  0.00    +0.047 A 
ATOM      9  C   UNL     1     -27.214 -13.341  21.761  0.00  0.00    +0.071 A 
ATOM     10  S   UNL     1     -28.445 -12.535  20.947  0.00  0.00    -0.060 S 
ATOM     11  C   UNL     1     -27.944 -13.078  19.431  0.00  0.00    +0.165 A 
ATOM     12  N   UNL     1     -26.860 -13.877  19.526  0.00  0.00    -0.230 NA
ATOM     13  N   UNL     1     -28.590 -12.802  18.180  0.00  0.00    -0.261 N 
ATOM     14  C   UNL     1     -29.625 -11.819  18.006  0.00  0.00    +0.250 C 
ATOM     15  O   UNL     1     -29.757 -10.888  18.845  0.00  0.00    -0.270 OA
ATOM     16  H   UNL     1     -28.246 -13.322  17.343  0.00  0.00    +0.157 HD
ENDBRANCH   1  14
BRANCH   4  17
ATOM     17  S   UNL     1     -33.335 -11.963  13.212  0.00  0.00    +0.072 S 
ATOM     18  O   UNL     1     -32.732 -11.261  12.027  0.00  0.00    -0.150 OA
ATOM     19  O   UNL     1     -33.591 -13.399  12.853  0.00  0.00    -0.150 OA
BRANCH  17  20
ATOM     20  N   UNL     1     -34.834 -11.195  13.626  0.00  0.00    -0.216 N 
ATOM     21  H   UNL     1     -35.707 -11.717  13.387  0.00  0.00    +0.174 HD
BRANCH  20  22
ATOM     22  C   UNL     1     -34.904  -9.981  14.397  0.00  0.00    +0.051 A 
ATOM     23  C   UNL     1     -34.926  -8.729  13.752  0.00  0.00    +0.025 A 
ATOM     24  C   UNL     1     -34.999  -7.548  14.492  0.00  0.00    +0.002 A 
ATOM     25  C   UNL     1     -35.060  -7.597  15.883  0.00  0.00    +0.000 A 
ATOM     26  C   UNL     1     -35.047  -8.827  16.541  0.00  0.00    +0.005 A 
ATOM     27  C   UNL     1     -34.963 -10.027  15.812  0.00  0.00    -0.028 A 
ATOM     28  C   UNL     1     -34.932 -11.336  16.554  0.00  0.00    +0.046 C 
ENDBRANCH  20  22
ENDBRANCH  17  20
ENDBRANCH   4  17
TORSDOF 4
ENDMDL
MODEL 3
REMARK VINA RESULT:    -2.246      2.937      4.023
REMARK INTER + INTRA:          -3.694
REMARK INTER:                  -2.962
REMARK INTRA:                  -0.732
REMARK UNBOUND:                -0.923
REMARK  Name = 
REMARK  6 active torsions:
REMARK  status: ('A' for Active; 'I' for Inactive)
REMARK    1  A    between atoms: C_1  and  C_2
REMARK    2  A    between atoms: C_8  and  C_10
REMARK    3  A    between atoms: C_13  and  S_16
REMARK    4  A    between atoms: S_16  and  N_19
REMARK    5  A    between atoms: N_19  and  C_20
REMARK    6  A    between atoms: C_25  and  C_26
REMARK                            x       y       z     vdW  Elec       q    Type
REMARK                         _______ _______ _______ _____ _____    ______ ____
ROOT
ATOM      1  C   UNL     1     -30.739 -10.725  19.132  0.00  0.00    +0.037 A 
ATOM      2  C   UNL     1     -29.721 -10.546  18.178  0.00  0.00    +0.015 A 
ATOM      3  C   UNL     1     -29.490 -11.512  17.196  0.00  0.00    +0.029 A 
ATOM      4  C   UNL     1     -30.277 -12.669  17.146  0.00  0.00    +0.109 A 
ATOM      5  C   UNL     1     -31.295 -12.853  18.088  0.00  0.00    +0.029 A 
ATOM      6  C   UNL     1     -31.529 -11.888  19.073  0.00  0.00    +0.015 A 
ENDROOT
BRANCH   1  14
ATOM      7  C   UNL     1     -34.578  -4.942  21.851  0.00  0.00    +0.066 C 
ATOM      8  C   UNL     1     -33.396  -5.816  21.586  0.00  0.00    +0.047 A 
ATOM      9  C   UNL     1     -32.113  -5.507  22.029  0.00  0.00    +0.071 A 
ATOM     10  S   UNL     1     -31.090  -6.753  21.557  0.00  0.00    -0.060 S 
ATOM     11  C   UNL     1     -32.326  -7.638  20.829  0.00  0.00    +0.165 A 
ATOM     12  N   UNL     1     -33.512  -6.999  20.922  0.00  0.00    -0.230 NA
ATOM     13  N   UNL     1     -32.177  -8.885  20.134  0.00  0.00    -0.261 N 
ATOM     14  C   UNL     1     -30.984  -9.688  20.165  0.00  0.00    +0.250 C 
ATOM     15  O   UNL     1     -30.148  -9.538  21.098  0.00  0.00    -0.270 OA
ATOM     16  H   UNL     1     -33.008  -9.242  19.614  0.00  0.00    +0.157 HD
ENDBRANCH   1  14
BRANCH   4  17
ATOM     17  S   UNL     1     -30.014 -13.882  15.897  0.00  0.00    +0.072 S 
ATOM     18  O   UNL     1     -28.644 -14.489  16.020  0.00  0.00    -0.150 OA
ATOM     19  O   UNL     1     -31.045 -14.963  16.053  0.00  0.00    -0.150 OA
BRANCH  17  20
ATOM     20  N   UNL     1     -30.175 -13.156  14.330  0.00  0.00    -0.216 N 
ATOM     21  H   UNL     1     -29.292 -12.991  13.799  0.00  0.00    +0.174 HD
BRANCH  20  22
ATOM     22  C   UNL     1     -31.451 -12.926  13.702  0.00  0.00    +0.051 A 
ATOM     23  C   UNL     1     -32.343 -11.973  14.232  0.00  0.00    +0.025 A 
ATOM     24  C   UNL     1     -33.579 -11.740  13.628  0.00  0.00    +0.002 A 
ATOM     25  C   UNL     1     -33.941 -12.446  12.482  0.00  0.00    +0.000 A 
ATOM     26  C   UNL     1     -33.070 -13.390  11.937  0.00  0.00    +0.005 A 
ATOM     27  C   UNL     1     -31.825 -13.645  12.540  0.00  0.00    -0.028 A 
ATOM     28  C   UNL     1     -30.916 -14.682  11.938  0.00  0.00    +0.046 C 
ENDBRANCH  20  22
ENDBRANCH  17  20
ENDBRANCH   4  17
TORSDOF 4
ENDMDL
MODEL 4
REMARK VINA RESULT:    -1.925      2.952      9.224
REMARK INTER + INTRA:          -3.298
REMARK INTER:                  -2.590
REMARK INTRA:                  -0.708
REMARK UNBOUND:                -0.923
REMARK  Name = 
REMARK  6 active torsions:
REMARK  status: ('A' for Active; 'I' for Inactive)
REMARK    1  A    between atoms: C_1  and  C_2
REMARK    2  A    between atoms: C_8  and  C_10
REMARK    3  A    between atoms: C_13  and  S_16
REMARK    4  A    between atoms: S_16  and  N_19
REMARK    5  A    between atoms: N_19  and  C_20
REMARK    6  A    between atoms: C_25  and  C_26
REMARK                            x       y       z     vdW  Elec       q    Type
REMARK                         _______ _______ _______ _____ _____    ______ ____
ROOT
ATOM      1  C   UNL     1     -30.801 -11.813  17.657  0.00  0.00    +0.037 A 
ATOM      2  C   UNL     1     -29.794 -10.840  17.793  0.00  0.00    +0.015 A 
ATOM      3  C   UNL     1     -29.925  -9.807  18.724  0.00  0.00    +0.029 A 
ATOM      4  C   UNL     1     -31.061  -9.734  19.540  0.00  0.00    +0.109 A 
ATOM      5  C   UNL     1     -32.064 -10.701  19.415  0.00  0.00    +0.029 A 
ATOM      6  C   UNL     1     -31.936 -11.736  18.484  0.00  0.00    +0.015 A 
ENDROOT
BRANCH   1  14
ATOM      7  C   UNL     1     -27.292 -15.062  11.938  0.00  0.00    +0.066 C 
ATOM      8  C   UNL     1     -28.431 -14.680  12.825  0.00  0.00    +0.047 A 
ATOM      9  C   UNL     1     -29.746 -15.061  12.572  0.00  0.00    +0.071 A 
ATOM     10  S   UNL     1     -30.705 -14.462  13.816  0.00  0.00    -0.060 S 
ATOM     11  C   UNL     1     -29.403 -13.764  14.629  0.00  0.00    +0.165 A 
ATOM     12  N   UNL     1     -28.244 -13.963  13.968  0.00  0.00    -0.230 NA
ATOM     13  N   UNL     1     -29.477 -12.997  15.840  0.00  0.00    -0.261 N 
ATOM     14  C   UNL     1     -30.647 -12.912  16.672  0.00  0.00    +0.250 C 
ATOM     15  O   UNL     1     -31.540 -13.799  16.594  0.00  0.00    -0.270 OA
ATOM     16  H   UNL     1     -28.607 -12.510  16.147  0.00  0.00    +0.157 HD
ENDBRANCH   1  14
BRANCH   4  17
ATOM     17  S   UNL     1     -31.226  -8.453  20.738  0.00  0.00    +0.072 S 
ATOM     18  O   UNL     1     -30.657  -8.883  22.062  0.00  0.00    -0.150 OA
ATOM     19  O   UNL     1     -30.479  -7.243  20.253  0.00  0.00    -0.150 OA
BRANCH  17  20
ATOM     20  N   UNL     1     -32.901  -8.053  20.941  0.00  0.00    -0.216 N 
ATOM     21  H   UNL     1     -33.354  -8.374  21.826  0.00  0.00    +0.174 HD
BRANCH  20  22
ATOM     22  C   UNL     1     -33.615  -7.191  20.034  0.00  0.00    +0.051 A 
ATOM     23  C   UNL     1     -34.229  -7.723  18.884  0.00  0.00    +0.025 A 
ATOM     24  C   UNL     1     -34.926  -6.897  18.002  0.00  0.00    +0.002 A 
ATOM     25  C   UNL     1     -35.030  -5.531  18.257  0.00  0.00    +0.000 A 
ATOM     26  C   UNL     1     -34.435  -4.985  19.394  0.00  0.00    +0.005 A 
ATOM     27  C   UNL     1     -33.719  -5.802  20.288  0.00  0.00    -0.028 A 
ATOM     28  C   UNL     1     -33.073  -5.178  21.496  0.00  0.00    +0.046 C 
ENDBRANCH  20  22
ENDBRANCH  17  20
ENDBRANCH   4  17
TORSDOF 4
ENDMDL
