MODEL 1
REMARK VINA RESULT:    -5.352      0.000      0.000
REMARK INTER + INTRA:          -8.837
REMARK INTER:                  -7.542
REMARK INTRA:                  -1.295
REMARK UNBOUND:                -1.295
REMARK  Name = 
REMARK  7 active torsions:
REMARK  status: ('A' for Active; 'I' for Inactive)
REMARK    1  A    between atoms: C_2  and  C_13
REMARK    2  A    between atoms: N_3  and  C_4
REMARK    3  A    between atoms: C_4  and  C_5
REMARK    4  A    between atoms: C_5  and  C_6
REMARK    5  A    between atoms: C_16  and  N_19
REMARK    6  A    between atoms: N_19  and  S_20
REMARK    7  A    between atoms: S_20  and  C_23
REMARK                            x       y       z     vdW  Elec       q    Type
REMARK                         _______ _______ _______ _____ _____    ______ ____
ROOT
ATOM      1  C   UNL     1     -32.823 -11.208  15.843  0.00  0.00    +0.037 A 
ATOM      2  C   UNL     1     -33.252 -11.906  16.985  0.00  0.00    +0.015 A 
ATOM      3  C   UNL     1     -33.091 -11.355  18.259  0.00  0.00    +0.025 A 
ATOM      4  C   UNL     1     -32.508 -10.086  18.419  0.00  0.00    +0.048 A 
ATOM      5  C   UNL     1     -32.086  -9.386  17.279  0.00  0.00    +0.025 A 
ATOM      6  C   UNL     1     -32.245  -9.936  16.003  0.00  0.00    +0.015 A 
ENDROOT
BRANCH   1   8
ATOM      7  O   UNL     1     -34.154 -12.193  14.147  0.00  0.00    -0.270 OA
ATOM      8  C   UNL     1     -33.005 -11.807  14.499  0.00  0.00    +0.244 C 
ATOM      9  N   UNL     1     -31.896 -11.971  13.599  0.00  0.00    -0.311 N 
ATOM     10  H   UNL     1     -30.928 -11.740  13.914  0.00  0.00    +0.149 HD
BRANCH   9  11
ATOM     11  C   UNL     1     -32.060 -12.492  12.243  0.00  0.00    +0.109 C 
BRANCH  11  12
ATOM     12  C   UNL     1     -31.795 -14.000  12.214  0.00  0.00    +0.054 C 
BRANCH  12  13
ATOM     13  C   UNL     1     -30.494 -14.322  12.899  0.00  0.00    -0.043 A 
ATOM     14  C   UNL     1     -30.472 -14.627  14.269  0.00  0.00    +0.004 A 
ATOM     15  C   UNL     1     -29.267 -14.957  14.898  0.00  0.00    +0.003 A 
ATOM     16  C   UNL     1     -28.080 -14.994  14.161  0.00  0.00    +0.038 A 
ATOM     17  C   UNL     1     -28.096 -14.705  12.794  0.00  0.00    +0.124 A 
ATOM     18  F   UNL     1     -26.945 -14.748  12.079  0.00  0.00    -0.205 F 
ATOM     19  C   UNL     1     -29.299 -14.374  12.162  0.00  0.00    +0.042 A 
ENDBRANCH  12  13
ENDBRANCH  11  12
ENDBRANCH   9  11
ENDBRANCH   1   8
BRANCH   4  20
ATOM     20  N   UNL     1     -32.332  -9.485  19.715  0.00  0.00    -0.216 N 
ATOM     21  H   UNL     1     -33.176  -9.227  20.273  0.00  0.00    +0.174 HD
BRANCH  20  22
ATOM     22  S   UNL     1     -30.790  -9.272  20.482  0.00  0.00    +0.072 S 
ATOM     23  O   UNL     1     -30.154  -8.012  19.966  0.00  0.00    -0.150 OA
ATOM     24  O   UNL     1     -30.988  -9.146  21.967  0.00  0.00    -0.150 OA
BRANCH  22  25
ATOM     25  C   UNL     1     -29.763 -10.667  20.165  0.00  0.00    +0.111 A 
ATOM     26  C   UNL     1     -28.940 -10.684  19.030  0.00  0.00    +0.032 A 
ATOM     27  C   UNL     1     -28.115 -11.784  18.778  0.00  0.00    +0.043 A 
ATOM     28  C   UNL     1     -28.108 -12.871  19.656  0.00  0.00    +0.159 A 
ATOM     29  F   UNL     1     -27.306 -13.936  19.408  0.00  0.00    -0.202 F 
ATOM     30  C   UNL     1     -28.931 -12.861  20.788  0.00  0.00    +0.160 A 
ATOM     31  F   UNL     1     -28.927 -13.916  21.641  0.00  0.00    -0.202 F 
ATOM     32  C   UNL     1     -29.758 -11.762  21.042  0.00  0.00    +0.070 A 
ENDBRANCH  22  25
ENDBRANCH  20  22
ENDBRANCH   4  20
TORSDOF 7
ENDMDL
MODEL 2
REMARK VINA RESULT:    -5.332      1.073      1.770
REMARK INTER + INTRA:          -8.809
REMARK INTER:                  -7.597
REMARK INTRA:                  -1.212
REMARK UNBOUND:                -1.295
REMARK  Name = 
REMARK  7 active torsions:
REMARK  status: ('A' for Active; 'I' for Inactive)
REMARK    1  A    between atoms: C_2  and  C_13
REMARK    2  A    between atoms: N_3  and  C_4
REMARK    3  A    between atoms: C_4  and  C_5
REMARK    4  A    between atoms: C_5  and  C_6
REMARK    5  A    between atoms: C_16  and  N_19
REMARK    6  A    between atoms: N_19  and  S_20
REMARK    7  A    between atoms: S_20  and  C_23
REMARK                            x       y       z     vdW  Elec       q    Type
REMARK                         _______ _______ _______ _____ _____    ______ ____
ROOT
ATOM      1  C   UNL     1     -32.817 -11.233  15.855  0.00  0.00    +0.037 A 
ATOM      2  C   UNL     1     -33.097 -12.028  16.979  0.00  0.00    +0.015 A 
ATOM      3  C   UNL     1     -32.922 -11.525  18.270  0.00  0.00    +0.025 A 
ATOM      4  C   UNL     1     -32.475 -10.207  18.467  0.00  0.00    +0.048 A 
ATOM      5  C   UNL     1     -32.203  -9.410  17.346  0.00  0.00    +0.025 A 
ATOM      6  C   UNL     1     -32.376  -9.912  16.053  0.00  0.00    +0.015 A 
ENDROOT
BRANCH   1   8
ATOM      7  O   UNL     1     -34.181 -12.047  14.096  0.00  0.00    -0.270 OA
ATOM      8  C   UNL     1     -33.012 -11.783  14.492  0.00  0.00    +0.244 C 
ATOM      9  N   UNL     1     -31.895 -12.036  13.623  0.00  0.00    -0.311 N 
ATOM     10  H   UNL     1     -30.920 -11.908  13.974  0.00  0.00    +0.149 HD
BRANCH   9  11
ATOM     11  C   UNL     1     -32.063 -12.510  12.251  0.00  0.00    +0.109 C 
BRANCH  11  12
ATOM     12  C   UNL     1     -31.730 -14.001  12.156  0.00  0.00    +0.054 C 
BRANCH  12  13
ATOM     13  C   UNL     1     -30.519 -14.327  12.987  0.00  0.00    -0.043 A 
ATOM     14  C   UNL     1     -29.251 -14.412  12.388  0.00  0.00    +0.004 A 
ATOM     15  C   UNL     1     -28.121 -14.684  13.166  0.00  0.00    +0.003 A 
ATOM     16  C   UNL     1     -28.247 -14.862  14.547  0.00  0.00    +0.038 A 
ATOM     17  C   UNL     1     -29.504 -14.766  15.152  0.00  0.00    +0.124 A 
ATOM     18  F   UNL     1     -29.624 -14.934  16.492  0.00  0.00    -0.205 F 
ATOM     19  C   UNL     1     -30.636 -14.495  14.377  0.00  0.00    +0.042 A 
ENDBRANCH  12  13
ENDBRANCH  11  12
ENDBRANCH   9  11
ENDBRANCH   1   8
BRANCH   4  20
ATOM     20  N   UNL     1     -32.290  -9.653  19.783  0.00  0.00    -0.216 N 
ATOM     21  H   UNL     1     -33.127  -9.479  20.382  0.00  0.00    +0.174 HD
BRANCH  20  22
ATOM     22  S   UNL     1     -30.737  -9.369  20.504  0.00  0.00    +0.072 S 
ATOM     23  O   UNL     1     -30.113  -8.160  19.865  0.00  0.00    -0.150 OA
ATOM     24  O   UNL     1     -30.913  -9.108  21.974  0.00  0.00    -0.150 OA
BRANCH  22  25
ATOM     25  C   UNL     1     -29.710 -10.785  20.299  0.00  0.00    +0.111 A 
ATOM     26  C   UNL     1     -29.550 -11.689  21.358  0.00  0.00    +0.032 A 
ATOM     27  C   UNL     1     -28.744 -12.820  21.199  0.00  0.00    +0.043 A 
ATOM     28  C   UNL     1     -28.093 -13.052  19.984  0.00  0.00    +0.159 A 
ATOM     29  F   UNL     1     -27.311 -14.150  19.834  0.00  0.00    -0.202 F 
ATOM     30  C   UNL     1     -28.245 -12.150  18.926  0.00  0.00    +0.160 A 
ATOM     31  F   UNL     1     -27.614 -12.371  17.746  0.00  0.00    -0.202 F 
ATOM     32  C   UNL     1     -29.052 -11.017  19.083  0.00  0.00    +0.070 A 
ENDBRANCH  22  25
ENDBRANCH  20  22
ENDBRANCH   4  20
TORSDOF 7
ENDMDL
MODEL 3
REMARK VINA RESULT:    -4.950      2.047      2.417
REMARK INTER + INTRA:          -8.271
REMARK INTER:                  -7.024
REMARK INTRA:                  -1.248
REMARK UNBOUND:                -1.295
REMARK  Name = 
REMARK  7 active torsions:
REMARK  status: ('A' for Active; 'I' for Inactive)
REMARK    1  A    between atoms: C_2  and  C_13
REMARK    2  A    between atoms: N_3  and  C_4
REMARK    3  A    between atoms: C_4  and  C_5
REMARK    4  A    between atoms: C_5  and  C_6
REMARK    5  A    between atoms: C_16  and  N_19
REMARK    6  A    between atoms: N_19  and  S_20
REMARK    7  A    between atoms: S_20  and  C_23
REMARK                            x       y       z     vdW  Elec       q    Type
REMARK                         _______ _______ _______ _____ _____    ______ ____
ROOT
ATOM      1  C   UNL     1     -33.983 -10.874  14.812  0.00  0.00    +0.037 A 
ATOM      2  C   UNL     1     -34.375 -11.657  15.910  0.00  0.00    +0.015 A 
ATOM      3  C   UNL     1     -34.663 -11.064  17.142  0.00  0.00    +0.025 A 
ATOM      4  C   UNL     1     -34.578  -9.670  17.299  0.00  0.00    +0.048 A 
ATOM      5  C   UNL     1     -34.194  -8.887  16.201  0.00  0.00    +0.025 A 
ATOM      6  C   UNL     1     -33.904  -9.479  14.968  0.00  0.00    +0.015 A 
ENDROOT
BRANCH   1   8
ATOM      7  O   UNL     1     -34.592 -11.595  12.637  0.00  0.00    -0.270 OA
ATOM      8  C   UNL     1     -33.685 -11.521  13.511  0.00  0.00    +0.244 C 
ATOM      9  N   UNL     1     -32.389 -12.079  13.236  0.00  0.00    -0.311 N 
ATOM     10  H   UNL     1     -31.660 -12.105  13.983  0.00  0.00    +0.149 HD
BRANCH   9  11
ATOM     11  C   UNL     1     -32.046 -12.658  11.938  0.00  0.00    +0.109 C 
BRANCH  11  12
ATOM     12  C   UNL     1     -31.761 -14.155  12.079  0.00  0.00    +0.054 C 
BRANCH  12  13
ATOM     13  C   UNL     1     -30.567 -14.385  12.967  0.00  0.00    -0.043 A 
ATOM     14  C   UNL     1     -29.285 -14.520  12.409  0.00  0.00    +0.004 A 
ATOM     15  C   UNL     1     -28.173 -14.702  13.236  0.00  0.00    +0.003 A 
ATOM     16  C   UNL     1     -28.331 -14.741  14.624  0.00  0.00    +0.038 A 
ATOM     17  C   UNL     1     -29.602 -14.594  15.187  0.00  0.00    +0.124 A 
ATOM     18  F   UNL     1     -29.753 -14.626  16.534  0.00  0.00    -0.205 F 
ATOM     19  C   UNL     1     -30.717 -14.412  14.363  0.00  0.00    +0.042 A 
ENDBRANCH  12  13
ENDBRANCH  11  12
ENDBRANCH   9  11
ENDBRANCH   1   8
BRANCH   4  20
ATOM     20  N   UNL     1     -34.873  -9.024  18.551  0.00  0.00    -0.216 N 
ATOM     21  H   UNL     1     -35.868  -8.815  18.792  0.00  0.00    +0.174 HD
BRANCH  20  22
ATOM     22  S   UNL     1     -33.684  -8.677  19.766  0.00  0.00    +0.072 S 
ATOM     23  O   UNL     1     -33.296  -7.227  19.673  0.00  0.00    -0.150 OA
ATOM     24  O   UNL     1     -34.271  -8.939  21.124  0.00  0.00    -0.150 OA
BRANCH  22  25
ATOM     25  C   UNL     1     -32.279  -9.716  19.547  0.00  0.00    +0.111 A 
ATOM     26  C   UNL     1     -31.183  -9.259  18.801  0.00  0.00    +0.032 A 
ATOM     27  C   UNL     1     -30.060 -10.075  18.631  0.00  0.00    +0.043 A 
ATOM     28  C   UNL     1     -30.028 -11.350  19.204  0.00  0.00    +0.159 A 
ATOM     29  F   UNL     1     -28.937 -12.138  19.037  0.00  0.00    -0.202 F 
ATOM     30  C   UNL     1     -31.120 -11.812  19.945  0.00  0.00    +0.160 A 
ATOM     31  F   UNL     1     -31.092 -13.049  20.500  0.00  0.00    -0.202 F 
ATOM     32  C   UNL     1     -32.245 -10.997  20.116  0.00  0.00    +0.070 A 
ENDBRANCH  22  25
ENDBRANCH  20  22
ENDBRANCH   4  20
TORSDOF 7
ENDMDL
MODEL 4
REMARK VINA RESULT:    -4.907      3.623      5.519
REMARK INTER + INTRA:          -8.209
REMARK INTER:                  -7.463
REMARK INTRA:                  -0.746
REMARK UNBOUND:                -1.295
REMARK  Name = 
REMARK  7 active torsions:
REMARK  status: ('A' for Active; 'I' for Inactive)
REMARK    1  A    between atoms: C_2  and  C_13
REMARK    2  A    between atoms: N_3  and  C_4
REMARK    3  A    between atoms: C_4  and  C_5
REMARK    4  A    between atoms: C_5  and  C_6
REMARK    5  A    between atoms: C_16  and  N_19
REMARK    6  A    between atoms: N_19  and  S_20
REMARK    7  A    between atoms: S_20  and  C_23
REMARK                            x       y       z     vdW  Elec       q    Type
REMARK                         _______ _______ _______ _____ _____    ______ ____
ROOT
ATOM      1  C   UNL     1     -31.396 -13.364  14.943  0.00  0.00    +0.037 A 
ATOM      2  C   UNL     1     -30.117 -13.945  14.936  0.00  0.00    +0.015 A 
ATOM      3  C   UNL     1     -29.461 -14.239  16.134  0.00  0.00    +0.025 A 
ATOM      4  C   UNL     1     -30.078 -13.970  17.369  0.00  0.00    +0.048 A 
ATOM      5  C   UNL     1     -31.358 -13.397  17.376  0.00  0.00    +0.025 A 
ATOM      6  C   UNL     1     -32.015 -13.101  16.178  0.00  0.00    +0.015 A 
ENDROOT
BRANCH   1   8
ATOM      7  O   UNL     1     -31.747 -13.698  12.623  0.00  0.00    -0.270 OA
ATOM      8  C   UNL     1     -32.078 -13.062  13.661  0.00  0.00    +0.244 C 
ATOM      9  N   UNL     1     -33.094 -12.049  13.577  0.00  0.00    -0.311 N 
ATOM     10  H   UNL     1     -33.310 -11.454  14.409  0.00  0.00    +0.149 HD
BRANCH   9  11
ATOM     11  C   UNL     1     -33.832 -11.780  12.344  0.00  0.00    +0.109 C 
BRANCH  11  12
ATOM     12  C   UNL     1     -35.062 -10.918  12.634  0.00  0.00    +0.054 C 
BRANCH  12  13
ATOM     13  C   UNL     1     -34.904 -10.192  13.943  0.00  0.00    -0.043 A 
ATOM     14  C   UNL     1     -34.792  -8.792  13.968  0.00  0.00    +0.004 A 
ATOM     15  C   UNL     1     -34.676  -8.116  15.187  0.00  0.00    +0.003 A 
ATOM     16  C   UNL     1     -34.681  -8.831  16.388  0.00  0.00    +0.038 A 
ATOM     17  C   UNL     1     -34.805 -10.223  16.372  0.00  0.00    +0.124 A 
ATOM     18  F   UNL     1     -34.816 -10.915  17.538  0.00  0.00    -0.205 F 
ATOM     19  C   UNL     1     -34.921 -10.903  15.155  0.00  0.00    +0.042 A 
ENDBRANCH  12  13
ENDBRANCH  11  12
ENDBRANCH   9  11
ENDBRANCH   1   8
BRANCH   4  20
ATOM     20  N   UNL     1     -29.435 -14.265  18.622  0.00  0.00    -0.216 N 
ATOM     21  H   UNL     1     -29.576 -15.205  19.055  0.00  0.00    +0.174 HD
BRANCH  20  22
ATOM     22  S   UNL     1     -28.322 -13.196  19.415  0.00  0.00    +0.072 S 
ATOM     23  O   UNL     1     -27.604 -13.951  20.499  0.00  0.00    -0.150 OA
ATOM     24  O   UNL     1     -27.314 -12.699  18.417  0.00  0.00    -0.150 OA
BRANCH  22  25
ATOM     25  C   UNL     1     -29.186 -11.814  20.083  0.00  0.00    +0.111 A 
ATOM     26  C   UNL     1     -29.518 -11.790  21.444  0.00  0.00    +0.032 A 
ATOM     27  C   UNL     1     -30.195 -10.692  21.983  0.00  0.00    +0.043 A 
ATOM     28  C   UNL     1     -30.546  -9.615  21.164  0.00  0.00    +0.159 A 
ATOM     29  F   UNL     1     -31.203  -8.551  21.689  0.00  0.00    -0.202 F 
ATOM     30  C   UNL     1     -30.221  -9.636  19.803  0.00  0.00    +0.160 A 
ATOM     31  F   UNL     1     -30.561  -8.593  19.007  0.00  0.00    -0.202 F 
ATOM     32  C   UNL     1     -29.543 -10.734  19.262  0.00  0.00    +0.070 A 
ENDBRANCH  22  25
ENDBRANCH  20  22
ENDBRANCH   4  20
TORSDOF 7
ENDMDL
MODEL 5
REMARK VINA RESULT:    -4.676      3.639      5.320
REMARK INTER + INTRA:          -7.884
REMARK INTER:                  -6.521
REMARK INTRA:                  -1.363
REMARK UNBOUND:                -1.295
REMARK  Name = 
REMARK  7 active torsions:
REMARK  status: ('A' for Active; 'I' for Inactive)
REMARK    1  A    between atoms: C_2  and  C_13
REMARK    2  A    between atoms: N_3  and  C_4
REMARK    3  A    between atoms: C_4  and  C_5
REMARK    4  A    between atoms: C_5  and  C_6
REMARK    5  A    between atoms: C_16  and  N_19
REMARK    6  A    between atoms: N_19  and  S_20
REMARK    7  A    between atoms: S_20  and  C_23
REMARK                            x       y       z     vdW  Elec       q    Type
REMARK                         _______ _______ _______ _____ _____    ______ ____
ROOT
ATOM      1  C   UNL     1     -30.965 -13.641  15.332  0.00  0.00    +0.037 A 
ATOM      2  C   UNL     1     -29.569 -13.549  15.455  0.00  0.00    +0.015 A 
ATOM      3  C   UNL     1     -28.950 -13.714  16.696  0.00  0.00    +0.025 A 
ATOM      4  C   UNL     1     -29.716 -13.987  17.843  0.00  0.00    +0.048 A 
ATOM      5  C   UNL     1     -31.109 -14.086  17.720  0.00  0.00    +0.025 A 
ATOM      6  C   UNL     1     -31.730 -13.920  16.478  0.00  0.00    +0.015 A 
ENDROOT
BRANCH   1   8
ATOM      7  O   UNL     1     -31.308 -14.260  13.070  0.00  0.00    -0.270 OA
ATOM      8  C   UNL     1     -31.604 -13.466  14.005  0.00  0.00    +0.244 C 
ATOM      9  N   UNL     1     -32.539 -12.402  13.761  0.00  0.00    -0.311 N 
ATOM     10  H   UNL     1     -32.721 -11.686  14.499  0.00  0.00    +0.149 HD
BRANCH   9  11
ATOM     11  C   UNL     1     -33.236 -12.250  12.485  0.00  0.00    +0.109 C 
BRANCH  11  12
ATOM     12  C   UNL     1     -34.585 -11.557  12.692  0.00  0.00    +0.054 C 
BRANCH  12  13
ATOM     13  C   UNL     1     -34.599 -10.805  13.996  0.00  0.00    -0.043 A 
ATOM     14  C   UNL     1     -34.664 -11.500  15.214  0.00  0.00    +0.004 A 
ATOM     15  C   UNL     1     -34.645 -10.802  16.426  0.00  0.00    +0.003 A 
ATOM     16  C   UNL     1     -34.551  -9.408  16.430  0.00  0.00    +0.038 A 
ATOM     17  C   UNL     1     -34.472  -8.709  15.221  0.00  0.00    +0.124 A 
ATOM     18  F   UNL     1     -34.374  -7.357  15.226  0.00  0.00    -0.205 F 
ATOM     19  C   UNL     1     -34.491  -9.404  14.008  0.00  0.00    +0.042 A 
ENDBRANCH  12  13
ENDBRANCH  11  12
ENDBRANCH   9  11
ENDBRANCH   1   8
BRANCH   4  20
ATOM     20  N   UNL     1     -29.112 -14.169  19.137  0.00  0.00    -0.216 N 
ATOM     21  H   UNL     1     -28.790 -15.122  19.417  0.00  0.00    +0.174 HD
BRANCH  20  22
ATOM     22  S   UNL     1     -28.761 -12.870  20.233  0.00  0.00    +0.072 S 
ATOM     23  O   UNL     1     -28.734 -13.405  21.637  0.00  0.00    -0.150 OA
ATOM     24  O   UNL     1     -27.412 -12.294  19.904  0.00  0.00    -0.150 OA
BRANCH  22  25
ATOM     25  C   UNL     1     -29.972 -11.601  20.071  0.00  0.00    +0.111 A 
ATOM     26  C   UNL     1     -29.684 -10.454  19.319  0.00  0.00    +0.032 A 
ATOM     27  C   UNL     1     -30.644  -9.447  19.178  0.00  0.00    +0.043 A 
ATOM     28  C   UNL     1     -31.895  -9.582  19.788  0.00  0.00    +0.159 A 
ATOM     29  F   UNL     1     -32.824  -8.604  19.650  0.00  0.00    -0.202 F 
ATOM     30  C   UNL     1     -32.186 -10.723  20.543  0.00  0.00    +0.160 A 
ATOM     31  F   UNL     1     -33.398 -10.855  21.137  0.00  0.00    -0.202 F 
ATOM     32  C   UNL     1     -31.226 -11.731  20.686  0.00  0.00    +0.070 A 
ENDBRANCH  22  25
ENDBRANCH  20  22
ENDBRANCH   4  20
TORSDOF 7
ENDMDL
MODEL 6
REMARK VINA RESULT:    -4.662      3.984      7.809
REMARK INTER + INTRA:          -7.864
REMARK INTER:                  -6.144
REMARK INTRA:                  -1.721
REMARK UNBOUND:                -1.295
REMARK  Name = 
REMARK  7 active torsions:
REMARK  status: ('A' for Active; 'I' for Inactive)
REMARK    1  A    between atoms: C_2  and  C_13
REMARK    2  A    between atoms: N_3  and  C_4
REMARK    3  A    between atoms: C_4  and  C_5
REMARK    4  A    between atoms: C_5  and  C_6
REMARK    5  A    between atoms: C_16  and  N_19
REMARK    6  A    between atoms: N_19  and  S_20
REMARK    7  A    between atoms: S_20  and  C_23
REMARK                            x       y       z     vdW  Elec       q    Type
REMARK                         _______ _______ _______ _____ _____    ______ ____
ROOT
ATOM      1  C   UNL     1     -30.046 -12.995  16.677  0.00  0.00    +0.037 A 
ATOM      2  C   UNL     1     -30.443 -11.695  16.323  0.00  0.00    +0.015 A 
ATOM      3  C   UNL     1     -31.220 -11.472  15.183  0.00  0.00    +0.025 A 
ATOM      4  C   UNL     1     -31.628 -12.549  14.377  0.00  0.00    +0.048 A 
ATOM      5  C   UNL     1     -31.238 -13.848  14.734  0.00  0.00    +0.025 A 
ATOM      6  C   UNL     1     -30.460 -14.072  15.874  0.00  0.00    +0.015 A 
ENDROOT
BRANCH   1   8
ATOM      7  O   UNL     1     -27.967 -13.230  17.791  0.00  0.00    -0.270 OA
ATOM      8  C   UNL     1     -29.225 -13.212  17.893  0.00  0.00    +0.244 C 
ATOM      9  N   UNL     1     -29.835 -13.418  19.178  0.00  0.00    -0.311 N 
ATOM     10  H   UNL     1     -30.874 -13.496  19.258  0.00  0.00    +0.149 HD
BRANCH   9  11
ATOM     11  C   UNL     1     -29.050 -13.563  20.403  0.00  0.00    +0.109 C 
BRANCH  11  12
ATOM     12  C   UNL     1     -29.369 -12.428  21.380  0.00  0.00    +0.054 C 
BRANCH  12  13
ATOM     13  C   UNL     1     -30.246 -11.396  20.724  0.00  0.00    -0.043 A 
ATOM     14  C   UNL     1     -29.673 -10.315  20.035  0.00  0.00    +0.004 A 
ATOM     15  C   UNL     1     -30.489  -9.373  19.399  0.00  0.00    +0.003 A 
ATOM     16  C   UNL     1     -31.879  -9.510  19.438  0.00  0.00    +0.038 A 
ATOM     17  C   UNL     1     -32.456 -10.592  20.110  0.00  0.00    +0.124 A 
ATOM     18  F   UNL     1     -33.805 -10.727  20.142  0.00  0.00    -0.205 F 
ATOM     19  C   UNL     1     -31.644 -11.535  20.747  0.00  0.00    +0.042 A 
ENDBRANCH  12  13
ENDBRANCH  11  12
ENDBRANCH   9  11
ENDBRANCH   1   8
BRANCH   4  20
ATOM     20  N   UNL     1     -32.433 -12.358  13.200  0.00  0.00    -0.216 N 
ATOM     21  H   UNL     1     -32.030 -12.595  12.266  0.00  0.00    +0.174 HD
BRANCH  20  22
ATOM     22  S   UNL     1     -34.099 -11.873  13.234  0.00  0.00    +0.072 S 
ATOM     23  O   UNL     1     -34.432 -11.168  11.949  0.00  0.00    -0.150 OA
ATOM     24  O   UNL     1     -34.969 -13.092  13.360  0.00  0.00    -0.150 OA
BRANCH  22  25
ATOM     25  C   UNL     1     -34.392 -10.824  14.617  0.00  0.00    +0.111 A 
ATOM     26  C   UNL     1     -34.689 -11.384  15.867  0.00  0.00    +0.032 A 
ATOM     27  C   UNL     1     -34.913 -10.557  16.972  0.00  0.00    +0.043 A 
ATOM     28  C   UNL     1     -34.844  -9.167  16.833  0.00  0.00    +0.159 A 
ATOM     29  F   UNL     1     -35.062  -8.368  17.906  0.00  0.00    -0.202 F 
ATOM     30  C   UNL     1     -34.553  -8.603  15.586  0.00  0.00    +0.160 A 
ATOM     31  F   UNL     1     -34.486  -7.256  15.448  0.00  0.00    -0.202 F 
ATOM     32  C   UNL     1     -34.328  -9.429  14.479  0.00  0.00    +0.070 A 
ENDBRANCH  22  25
ENDBRANCH  20  22
ENDBRANCH   4  20
TORSDOF 7
ENDMDL
MODEL 7
REMARK VINA RESULT:    -4.514      3.451      5.143
REMARK INTER + INTRA:          -7.656
REMARK INTER:                  -6.483
REMARK INTRA:                  -1.173
REMARK UNBOUND:                -1.295
REMARK  Name = 
REMARK  7 active torsions:
REMARK  status: ('A' for Active; 'I' for Inactive)
REMARK    1  A    between atoms: C_2  and  C_13
REMARK    2  A    between atoms: N_3  and  C_4
REMARK    3  A    between atoms: C_4  and  C_5
REMARK    4  A    between atoms: C_5  and  C_6
REMARK    5  A    between atoms: C_16  and  N_19
REMARK    6  A    between atoms: N_19  and  S_20
REMARK    7  A    between atoms: S_20  and  C_23
REMARK                            x       y       z     vdW  Elec       q    Type
REMARK                         _______ _______ _______ _____ _____    ______ ____
ROOT
ATOM      1  C   UNL     1     -29.827 -12.971  17.465  0.00  0.00    +0.037 A 
ATOM      2  C   UNL     1     -29.486 -11.612  17.568  0.00  0.00    +0.015 A 
ATOM      3  C   UNL     1     -29.842 -10.871  18.698  0.00  0.00    +0.025 A 
ATOM      4  C   UNL     1     -30.538 -11.479  19.758  0.00  0.00    +0.048 A 
ATOM      5  C   UNL     1     -30.872 -12.837  19.659  0.00  0.00    +0.025 A 
ATOM      6  C   UNL     1     -30.517 -13.579  18.528  0.00  0.00    +0.015 A 
ENDROOT
BRANCH   1   8
ATOM      7  O   UNL     1     -28.264 -14.200  16.174  0.00  0.00    -0.270 OA
ATOM      8  C   UNL     1     -29.437 -13.741  16.259  0.00  0.00    +0.244 C 
ATOM      9  N   UNL     1     -30.363 -13.959  15.181  0.00  0.00    -0.311 N 
ATOM     10  H   UNL     1     -31.304 -13.506  15.200  0.00  0.00    +0.149 HD
BRANCH   9  11
ATOM     11  C   UNL     1     -30.028 -14.774  14.015  0.00  0.00    +0.109 C 
BRANCH  11  12
ATOM     12  C   UNL     1     -30.299 -13.996  12.724  0.00  0.00    +0.054 C 
BRANCH  12  13
ATOM     13  C   UNL     1     -31.592 -13.233  12.827  0.00  0.00    -0.043 A 
ATOM     14  C   UNL     1     -32.718 -13.645  12.094  0.00  0.00    +0.004 A 
ATOM     15  C   UNL     1     -33.928 -12.954  12.215  0.00  0.00    +0.003 A 
ATOM     16  C   UNL     1     -34.025 -11.856  13.074  0.00  0.00    +0.038 A 
ATOM     17  C   UNL     1     -32.913 -11.449  13.817  0.00  0.00    +0.124 A 
ATOM     18  F   UNL     1     -33.011 -10.388  14.655  0.00  0.00    -0.205 F 
ATOM     19  C   UNL     1     -31.701 -12.137  13.699  0.00  0.00    +0.042 A 
ENDBRANCH  12  13
ENDBRANCH  11  12
ENDBRANCH   9  11
ENDBRANCH   1   8
BRANCH   4  20
ATOM     20  N   UNL     1     -30.916 -10.749  20.940  0.00  0.00    -0.216 N 
ATOM     21  H   UNL     1     -30.182 -10.506  21.642  0.00  0.00    +0.174 HD
BRANCH  20  22
ATOM     22  S   UNL     1     -32.509 -10.123  21.223  0.00  0.00    +0.072 S 
ATOM     23  O   UNL     1     -33.315 -11.150  21.968  0.00  0.00    -0.150 OA
ATOM     24  O   UNL     1     -32.412  -8.879  22.060  0.00  0.00    -0.150 OA
BRANCH  22  25
ATOM     25  C   UNL     1     -33.277  -9.716  19.692  0.00  0.00    +0.111 A 
ATOM     26  C   UNL     1     -33.402  -8.373  19.309  0.00  0.00    +0.032 A 
ATOM     27  C   UNL     1     -34.001  -8.043  18.090  0.00  0.00    +0.043 A 
ATOM     28  C   UNL     1     -34.481  -9.052  17.249  0.00  0.00    +0.159 A 
ATOM     29  F   UNL     1     -35.062  -8.728  16.068  0.00  0.00    -0.202 F 
ATOM     30  C   UNL     1     -34.364 -10.393  17.629  0.00  0.00    +0.160 A 
ATOM     31  F   UNL     1     -34.829 -11.373  16.815  0.00  0.00    -0.202 F 
ATOM     32  C   UNL     1     -33.764 -10.726  18.848  0.00  0.00    +0.070 A 
ENDBRANCH  22  25
ENDBRANCH  20  22
ENDBRANCH   4  20
TORSDOF 7
ENDMDL
MODEL 8
REMARK VINA RESULT:    -3.545      3.483      6.747
REMARK INTER + INTRA:          -6.290
REMARK INTER:                  -4.087
REMARK INTRA:                  -2.203
REMARK UNBOUND:                -1.295
REMARK  Name = 
REMARK  7 active torsions:
REMARK  status: ('A' for Active; 'I' for Inactive)
REMARK    1  A    between atoms: C_2  and  C_13
REMARK    2  A    between atoms: N_3  and  C_4
REMARK    3  A    between atoms: C_4  and  C_5
REMARK    4  A    between atoms: C_5  and  C_6
REMARK    5  A    between atoms: C_16  and  N_19
REMARK    6  A    between atoms: N_19  and  S_20
REMARK    7  A    between atoms: S_20  and  C_23
REMARK                            x       y       z     vdW  Elec       q    Type
REMARK                         _______ _______ _______ _____ _____    ______ ____
ROOT
ATOM      1  C   UNL     1     -33.011  -9.520  16.892  0.00  0.00    +0.037 A 
ATOM      2  C   UNL     1     -33.661 -10.616  16.301  0.00  0.00    +0.015 A 
ATOM      3  C   UNL     1     -32.933 -11.598  15.625  0.00  0.00    +0.025 A 
ATOM      4  C   UNL     1     -31.532 -11.512  15.537  0.00  0.00    +0.048 A 
ATOM      5  C   UNL     1     -30.882 -10.422  16.133  0.00  0.00    +0.025 A 
ATOM      6  C   UNL     1     -31.610  -9.437  16.808  0.00  0.00    +0.015 A 
ENDROOT
BRANCH   1   8
ATOM      7  O   UNL     1     -35.061  -8.525  17.545  0.00  0.00    -0.270 OA
ATOM      8  C   UNL     1     -33.801  -8.489  17.608  0.00  0.00    +0.244 C 
ATOM      9  N   UNL     1     -33.158  -7.444  18.357  0.00  0.00    -0.311 N 
ATOM     10  H   UNL     1     -32.118  -7.351  18.340  0.00  0.00    +0.149 HD
BRANCH   9  11
ATOM     11  C   UNL     1     -33.912  -6.458  19.130  0.00  0.00    +0.109 C 
BRANCH  11  12
ATOM     12  C   UNL     1     -33.558  -6.560  20.616  0.00  0.00    +0.054 C 
BRANCH  12  13
ATOM     13  C   UNL     1     -33.070  -7.944  20.950  0.00  0.00    -0.043 A 
ATOM     14  C   UNL     1     -33.985  -8.954  21.293  0.00  0.00    +0.004 A 
ATOM     15  C   UNL     1     -33.533 -10.247  21.573  0.00  0.00    +0.003 A 
ATOM     16  C   UNL     1     -32.169 -10.544  21.502  0.00  0.00    +0.038 A 
ATOM     17  C   UNL     1     -31.254  -9.547  21.148  0.00  0.00    +0.124 A 
ATOM     18  F   UNL     1     -29.932  -9.838  21.074  0.00  0.00    -0.205 F 
ATOM     19  C   UNL     1     -31.702  -8.252  20.868  0.00  0.00    +0.042 A 
ENDBRANCH  12  13
ENDBRANCH  11  12
ENDBRANCH   9  11
ENDBRANCH   1   8
BRANCH   4  20
ATOM     20  N   UNL     1     -30.749 -12.508  14.855  0.00  0.00    -0.216 N 
ATOM     21  H   UNL     1     -30.525 -12.372  13.844  0.00  0.00    +0.174 HD
BRANCH  20  22
ATOM     22  S   UNL     1     -30.031 -13.880  15.638  0.00  0.00    +0.072 S 
ATOM     23  O   UNL     1     -30.948 -15.063  15.495  0.00  0.00    -0.150 OA
ATOM     24  O   UNL     1     -28.718 -14.197  14.979  0.00  0.00    -0.150 OA
BRANCH  22  25
ATOM     25  C   UNL     1     -29.739 -13.518  17.337  0.00  0.00    +0.111 A 
ATOM     26  C   UNL     1     -30.746 -13.751  18.283  0.00  0.00    +0.032 A 
ATOM     27  C   UNL     1     -30.517 -13.476  19.635  0.00  0.00    +0.043 A 
ATOM     28  C   UNL     1     -29.282 -12.965  20.046  0.00  0.00    +0.159 A 
ATOM     29  F   UNL     1     -29.064 -12.698  21.358  0.00  0.00    -0.202 F 
ATOM     30  C   UNL     1     -28.276 -12.725  19.105  0.00  0.00    +0.160 A 
ATOM     31  F   UNL     1     -27.078 -12.229  19.501  0.00  0.00    -0.202 F 
ATOM     32  C   UNL     1     -28.503 -13.001  17.752  0.00  0.00    +0.070 A 
ENDBRANCH  22  25
ENDBRANCH  20  22
ENDBRANCH   4  20
TORSDOF 7
ENDMDL
