MODEL 1
REMARK VINA RESULT:    -4.671      0.000      0.000
REMARK INTER + INTRA:          -6.294
REMARK INTER:                  -5.763
REMARK INTRA:                  -0.530
REMARK UNBOUND:                -0.530
REMARK  Name = 
REMARK  6 active torsions:
REMARK  status: ('A' for Active; 'I' for Inactive)
REMARK    1  A    between atoms: C_1  and  C_2
REMARK    2  A    between atoms: C_4  and  C_5
REMARK    3  A    between atoms: C_5  and  N_6
REMARK    4  A    between atoms: N_6  and  C_7
REMARK    5  A    between atoms: N_6  and  S_8
REMARK    6  A    between atoms: S_8  and  C_11
REMARK                            x       y       z     vdW  Elec       q    Type
REMARK                         _______ _______ _______ _____ _____    ______ ____
ROOT
ATOM      1  S   UNL     1     -30.909 -12.371  18.880  0.00  0.00    +0.061 S 
ATOM      2  O   UNL     1     -32.212 -11.640  19.038  0.00  0.00    -0.153 OA
ATOM      3  O   UNL     1     -30.923 -13.548  19.814  0.00  0.00    -0.153 OA
ENDROOT
BRANCH   1   4
ATOM      4  C   UNL     1     -30.798 -12.947  17.211  0.00  0.00    +0.106 A 
ATOM      5  C   UNL     1     -30.226 -14.196  16.924  0.00  0.00    +0.031 A 
ATOM      6  C   UNL     1     -30.140 -14.647  15.604  0.00  0.00    +0.040 A 
ATOM      7  C   UNL     1     -30.646 -13.862  14.563  0.00  0.00    +0.124 A 
ATOM      8  F   UNL     1     -30.562 -14.300  13.282  0.00  0.00    -0.205 F 
ATOM      9  C   UNL     1     -31.246 -12.633  14.844  0.00  0.00    +0.040 A 
ATOM     10  C   UNL     1     -31.331 -12.180  16.164  0.00  0.00    +0.031 A 
ENDBRANCH   1   4
BRANCH   1  11
ATOM     11  N   UNL     1     -29.602 -11.294  19.328  0.00  0.00    -0.174 NA
ATOM     12  C   UNL     1     -30.061  -9.909  19.495  0.00  0.00    +0.132 C 
BRANCH  11  13
ATOM     13  C   UNL     1     -28.406 -11.422  18.470  0.00  0.00    +0.168 C 
BRANCH  13  17
ATOM     14  C   UNL     1     -25.658 -14.631  21.229  0.00  0.00    +0.089 C 
ATOM     15  C   UNL     1     -26.102 -13.548  20.307  0.00  0.00    +0.135 A 
ATOM     16  C   UNL     1     -27.405 -13.219  20.007  0.00  0.00    +0.072 A 
ATOM     17  C   UNL     1     -27.274 -12.190  19.098  0.00  0.00    +0.099 A 
ATOM     18  N   UNL     1     -25.967 -11.919  18.903  0.00  0.00    -0.082 NA
ATOM     19  O   UNL     1     -25.295 -12.759  19.637  0.00  0.00    -0.360 OA
ENDBRANCH  13  17
ENDBRANCH  11  13
ENDBRANCH   1  11
TORSDOF 4
ENDMDL
MODEL 2
REMARK VINA RESULT:    -4.495      2.892      4.181
REMARK INTER + INTRA:          -6.076
REMARK INTER:                  -5.428
REMARK INTRA:                  -0.648
REMARK UNBOUND:                -0.530
REMARK  Name = 
REMARK  6 active torsions:
REMARK  status: ('A' for Active; 'I' for Inactive)
REMARK    1  A    between atoms: C_1  and  C_2
REMARK    2  A    between atoms: C_4  and  C_5
REMARK    3  A    between atoms: C_5  and  N_6
REMARK    4  A    between atoms: N_6  and  C_7
REMARK    5  A    between atoms: N_6  and  S_8
REMARK    6  A    between atoms: S_8  and  C_11
REMARK                            x       y       z     vdW  Elec       q    Type
REMARK                         _______ _______ _______ _____ _____    ______ ____
ROOT
ATOM      1  S   UNL     1     -29.943  -9.924  18.822  0.00  0.00    +0.061 S 
ATOM      2  O   UNL     1     -28.598  -9.979  18.155  0.00  0.00    -0.153 OA
ATOM      3  O   UNL     1     -29.998  -8.670  19.650  0.00  0.00    -0.153 OA
ENDROOT
BRANCH   1   4
ATOM      4  C   UNL     1     -31.182  -9.851  17.562  0.00  0.00    +0.106 A 
ATOM      5  C   UNL     1     -32.430  -9.263  17.822  0.00  0.00    +0.031 A 
ATOM      6  C   UNL     1     -33.406  -9.209  16.823  0.00  0.00    +0.040 A 
ATOM      7  C   UNL     1     -33.135  -9.721  15.551  0.00  0.00    +0.124 A 
ATOM      8  F   UNL     1     -34.082  -9.669  14.582  0.00  0.00    -0.205 F 
ATOM      9  C   UNL     1     -31.884 -10.279  15.276  0.00  0.00    +0.040 A 
ATOM     10  C   UNL     1     -30.907 -10.336  16.274  0.00  0.00    +0.031 A 
ENDBRANCH   1   4
BRANCH   1  11
ATOM     11  N   UNL     1     -30.106 -11.316  19.874  0.00  0.00    -0.174 NA
ATOM     12  C   UNL     1     -30.324 -10.929  21.272  0.00  0.00    +0.132 C 
BRANCH  11  13
ATOM     13  C   UNL     1     -29.037 -12.321  19.698  0.00  0.00    +0.168 C 
BRANCH  13  17
ATOM     14  C   UNL     1     -30.354 -14.827  15.520  0.00  0.00    +0.089 C 
ATOM     15  C   UNL     1     -29.599 -14.095  16.576  0.00  0.00    +0.135 A 
ATOM     16  C   UNL     1     -30.120 -13.599  17.751  0.00  0.00    +0.072 A 
ATOM     17  C   UNL     1     -29.035 -12.993  18.351  0.00  0.00    +0.099 A 
ATOM     18  N   UNL     1     -27.941 -13.153  17.579  0.00  0.00    -0.082 NA
ATOM     19  O   UNL     1     -28.320 -13.811  16.520  0.00  0.00    -0.360 OA
ENDBRANCH  13  17
ENDBRANCH  11  13
ENDBRANCH   1  11
TORSDOF 4
ENDMDL
MODEL 3
REMARK VINA RESULT:    -4.322      2.659      3.104
REMARK INTER + INTRA:          -5.863
REMARK INTER:                  -5.936
REMARK INTRA:                   0.073
REMARK UNBOUND:                -0.530
REMARK  Name = 
REMARK  6 active torsions:
REMARK  status: ('A' for Active; 'I' for Inactive)
REMARK    1  A    between atoms: C_1  and  C_2
REMARK    2  A    between atoms: C_4  and  C_5
REMARK    3  A    between atoms: C_5  and  N_6
REMARK    4  A    between atoms: N_6  and  C_7
REMARK    5  A    between atoms: N_6  and  S_8
REMARK    6  A    between atoms: S_8  and  C_11
REMARK                            x       y       z     vdW  Elec       q    Type
REMARK                         _______ _______ _______ _____ _____    ______ ____
ROOT
ATOM      1  S   UNL     1     -29.818 -10.027  18.715  0.00  0.00    +0.061 S 
ATOM      2  O   UNL     1     -28.457 -10.048  18.077  0.00  0.00    -0.153 OA
ATOM      3  O   UNL     1     -29.928  -8.768  19.528  0.00  0.00    -0.153 OA
ENDROOT
BRANCH   1   4
ATOM      4  C   UNL     1     -31.030 -10.002  17.427  0.00  0.00    +0.106 A 
ATOM      5  C   UNL     1     -30.810 -10.696  16.226  0.00  0.00    +0.031 A 
ATOM      6  C   UNL     1     -31.771 -10.672  15.211  0.00  0.00    +0.040 A 
ATOM      7  C   UNL     1     -32.968  -9.974  15.397  0.00  0.00    +0.124 A 
ATOM      8  F   UNL     1     -33.899  -9.951  14.412  0.00  0.00    -0.205 F 
ATOM      9  C   UNL     1     -33.207  -9.309  16.602  0.00  0.00    +0.040 A 
ATOM     10  C   UNL     1     -32.247  -9.330  17.617  0.00  0.00    +0.031 A 
ENDBRANCH   1   4
BRANCH   1  11
ATOM     11  N   UNL     1     -29.963 -11.414  19.775  0.00  0.00    -0.174 NA
ATOM     12  C   UNL     1     -29.418 -11.145  21.112  0.00  0.00    +0.132 C 
BRANCH  11  13
ATOM     13  C   UNL     1     -29.471 -12.672  19.178  0.00  0.00    +0.168 C 
BRANCH  13  17
ATOM     14  C   UNL     1     -25.430 -14.622  21.488  0.00  0.00    +0.089 C 
ATOM     15  C   UNL     1     -26.338 -13.853  20.591  0.00  0.00    +0.135 A 
ATOM     16  C   UNL     1     -27.715 -13.887  20.604  0.00  0.00    +0.072 A 
ATOM     17  C   UNL     1     -28.066 -13.038  19.575  0.00  0.00    +0.099 A 
ATOM     18  N   UNL     1     -26.955 -12.520  19.015  0.00  0.00    -0.082 NA
ATOM     19  O   UNL     1     -25.939 -13.038  19.644  0.00  0.00    -0.360 OA
ENDBRANCH  13  17
ENDBRANCH  11  13
ENDBRANCH   1  11
TORSDOF 4
ENDMDL
MODEL 4
REMARK VINA RESULT:    -4.305      2.277      2.846
REMARK INTER + INTRA:          -5.842
REMARK INTER:                  -5.579
REMARK INTRA:                  -0.263
REMARK UNBOUND:                -0.530
REMARK  Name = 
REMARK  6 active torsions:
REMARK  status: ('A' for Active; 'I' for Inactive)
REMARK    1  A    between atoms: C_1  and  C_2
REMARK    2  A    between atoms: C_4  and  C_5
REMARK    3  A    between atoms: C_5  and  N_6
REMARK    4  A    between atoms: N_6  and  C_7
REMARK    5  A    between atoms: N_6  and  S_8
REMARK    6  A    between atoms: S_8  and  C_11
REMARK                            x       y       z     vdW  Elec       q    Type
REMARK                         _______ _______ _______ _____ _____    ______ ____
ROOT
ATOM      1  S   UNL     1     -31.219 -10.125  16.613  0.00  0.00    +0.061 S 
ATOM      2  O   UNL     1     -30.049  -9.384  16.031  0.00  0.00    -0.153 OA
ATOM      3  O   UNL     1     -32.166  -9.111  17.192  0.00  0.00    -0.153 OA
ENDROOT
BRANCH   1   4
ATOM      4  C   UNL     1     -32.024 -11.001  15.305  0.00  0.00    +0.106 A 
ATOM      5  C   UNL     1     -31.451 -12.165  14.768  0.00  0.00    +0.031 A 
ATOM      6  C   UNL     1     -32.091 -12.854  13.733  0.00  0.00    +0.040 A 
ATOM      7  C   UNL     1     -33.318 -12.397  13.243  0.00  0.00    +0.124 A 
ATOM      8  F   UNL     1     -33.938 -13.065  12.239  0.00  0.00    -0.205 F 
ATOM      9  C   UNL     1     -33.909 -11.258  13.795  0.00  0.00    +0.040 A 
ATOM     10  C   UNL     1     -33.270 -10.567  14.828  0.00  0.00    +0.031 A 
ENDBRANCH   1   4
BRANCH   1  11
ATOM     11  N   UNL     1     -30.641 -11.171  17.894  0.00  0.00    -0.174 NA
ATOM     12  C   UNL     1     -31.743 -11.806  18.628  0.00  0.00    +0.132 C 
BRANCH  11  13
ATOM     13  C   UNL     1     -29.635 -10.536  18.771  0.00  0.00    +0.168 C 
BRANCH  13  17
ATOM     14  C   UNL     1     -26.397 -13.983  20.532  0.00  0.00    +0.089 C 
ATOM     15  C   UNL     1     -27.024 -12.841  19.809  0.00  0.00    +0.135 A 
ATOM     16  C   UNL     1     -28.339 -12.442  19.903  0.00  0.00    +0.072 A 
ATOM     17  C   UNL     1     -28.415 -11.380  19.026  0.00  0.00    +0.099 A 
ATOM     18  N   UNL     1     -27.205 -11.159  18.475  0.00  0.00    -0.082 NA
ATOM     19  O   UNL     1     -26.399 -12.059  18.961  0.00  0.00    -0.360 OA
ENDBRANCH  13  17
ENDBRANCH  11  13
ENDBRANCH   1  11
TORSDOF 4
ENDMDL
MODEL 5
REMARK VINA RESULT:    -4.298      2.197      2.655
REMARK INTER + INTRA:          -5.833
REMARK INTER:                  -5.453
REMARK INTRA:                  -0.380
REMARK UNBOUND:                -0.530
REMARK  Name = 
REMARK  6 active torsions:
REMARK  status: ('A' for Active; 'I' for Inactive)
REMARK    1  A    between atoms: C_1  and  C_2
REMARK    2  A    between atoms: C_4  and  C_5
REMARK    3  A    between atoms: C_5  and  N_6
REMARK    4  A    between atoms: N_6  and  C_7
REMARK    5  A    between atoms: N_6  and  S_8
REMARK    6  A    between atoms: S_8  and  C_11
REMARK                            x       y       z     vdW  Elec       q    Type
REMARK                         _______ _______ _______ _____ _____    ______ ____
ROOT
ATOM      1  S   UNL     1     -30.489 -13.641  17.546  0.00  0.00    +0.061 S 
ATOM      2  O   UNL     1     -31.286 -14.902  17.731  0.00  0.00    -0.153 OA
ATOM      3  O   UNL     1     -29.276 -13.977  16.724  0.00  0.00    -0.153 OA
ENDROOT
BRANCH   1   4
ATOM      4  C   UNL     1     -31.491 -12.479  16.666  0.00  0.00    +0.106 A 
ATOM      5  C   UNL     1     -30.900 -11.440  15.930  0.00  0.00    +0.031 A 
ATOM      6  C   UNL     1     -31.696 -10.524  15.237  0.00  0.00    +0.040 A 
ATOM      7  C   UNL     1     -33.088 -10.653  15.256  0.00  0.00    +0.124 A 
ATOM      8  F   UNL     1     -33.860  -9.764  14.583  0.00  0.00    -0.205 F 
ATOM      9  C   UNL     1     -33.682 -11.704  15.959  0.00  0.00    +0.040 A 
ATOM     10  C   UNL     1     -32.888 -12.620  16.654  0.00  0.00    +0.031 A 
ENDBRANCH   1   4
BRANCH   1  11
ATOM     11  N   UNL     1     -29.978 -13.063  19.119  0.00  0.00    -0.174 NA
ATOM     12  C   UNL     1     -31.111 -12.615  19.937  0.00  0.00    +0.132 C 
BRANCH  11  13
ATOM     13  C   UNL     1     -28.869 -12.088  19.061  0.00  0.00    +0.168 C 
BRANCH  13  17
ATOM     14  C   UNL     1     -25.214 -14.707  21.353  0.00  0.00    +0.089 C 
ATOM     15  C   UNL     1     -25.976 -13.744  20.509  0.00  0.00    +0.135 A 
ATOM     16  C   UNL     1     -27.347 -13.642  20.427  0.00  0.00    +0.072 A 
ATOM     17  C   UNL     1     -27.538 -12.640  19.499  0.00  0.00    +0.099 A 
ATOM     18  N   UNL     1     -26.344 -12.169  19.086  0.00  0.00    -0.082 NA
ATOM     19  O   UNL     1     -25.431 -12.861  19.706  0.00  0.00    -0.360 OA
ENDBRANCH  13  17
ENDBRANCH  11  13
ENDBRANCH   1  11
TORSDOF 4
ENDMDL
MODEL 6
REMARK VINA RESULT:    -4.217      2.636      4.947
REMARK INTER + INTRA:          -5.733
REMARK INTER:                  -4.980
REMARK INTRA:                  -0.753
REMARK UNBOUND:                -0.530
REMARK  Name = 
REMARK  6 active torsions:
REMARK  status: ('A' for Active; 'I' for Inactive)
REMARK    1  A    between atoms: C_1  and  C_2
REMARK    2  A    between atoms: C_4  and  C_5
REMARK    3  A    between atoms: C_5  and  N_6
REMARK    4  A    between atoms: N_6  and  C_7
REMARK    5  A    between atoms: N_6  and  S_8
REMARK    6  A    between atoms: S_8  and  C_11
REMARK                            x       y       z     vdW  Elec       q    Type
REMARK                         _______ _______ _______ _____ _____    ______ ____
ROOT
ATOM      1  S   UNL     1     -28.372 -12.167  18.680  0.00  0.00    +0.061 S 
ATOM      2  O   UNL     1     -27.806 -13.458  18.162  0.00  0.00    -0.153 OA
ATOM      3  O   UNL     1     -27.243 -11.181  18.798  0.00  0.00    -0.153 OA
ENDROOT
BRANCH   1   4
ATOM      4  C   UNL     1     -29.551 -11.570  17.504  0.00  0.00    +0.106 A 
ATOM      5  C   UNL     1     -29.879 -10.206  17.451  0.00  0.00    +0.031 A 
ATOM      6  C   UNL     1     -30.812  -9.740  16.521  0.00  0.00    +0.040 A 
ATOM      7  C   UNL     1     -31.407 -10.629  15.621  0.00  0.00    +0.124 A 
ATOM      8  F   UNL     1     -32.313 -10.177  14.719  0.00  0.00    -0.205 F 
ATOM      9  C   UNL     1     -31.062 -11.983  15.647  0.00  0.00    +0.040 A 
ATOM     10  C   UNL     1     -30.131 -12.451  16.578  0.00  0.00    +0.031 A 
ENDBRANCH   1   4
BRANCH   1  11
ATOM     11  N   UNL     1     -29.059 -12.450  20.267  0.00  0.00    -0.174 NA
ATOM     12  C   UNL     1     -28.085 -13.039  21.192  0.00  0.00    +0.132 C 
BRANCH  11  13
ATOM     13  C   UNL     1     -30.352 -13.164  20.235  0.00  0.00    +0.168 C 
BRANCH  13  17
ATOM     14  C   UNL     1     -33.839  -9.702  21.387  0.00  0.00    +0.089 C 
ATOM     15  C   UNL     1     -33.064 -10.797  20.739  0.00  0.00    +0.135 A 
ATOM     16  C   UNL     1     -31.859 -11.307  21.171  0.00  0.00    +0.072 A 
ATOM     17  C   UNL     1     -31.557 -12.262  20.222  0.00  0.00    +0.099 A 
ATOM     18  N   UNL     1     -32.546 -12.321  19.307  0.00  0.00    -0.082 NA
ATOM     19  O   UNL     1     -33.427 -11.423  19.644  0.00  0.00    -0.360 OA
ENDBRANCH  13  17
ENDBRANCH  11  13
ENDBRANCH   1  11
TORSDOF 4
ENDMDL
MODEL 7
REMARK VINA RESULT:    -4.208      2.637      3.672
REMARK INTER + INTRA:          -5.722
REMARK INTER:                  -5.045
REMARK INTRA:                  -0.677
REMARK UNBOUND:                -0.530
REMARK  Name = 
REMARK  6 active torsions:
REMARK  status: ('A' for Active; 'I' for Inactive)
REMARK    1  A    between atoms: C_1  and  C_2
REMARK    2  A    between atoms: C_4  and  C_5
REMARK    3  A    between atoms: C_5  and  N_6
REMARK    4  A    between atoms: N_6  and  C_7
REMARK    5  A    between atoms: N_6  and  S_8
REMARK    6  A    between atoms: S_8  and  C_11
REMARK                            x       y       z     vdW  Elec       q    Type
REMARK                         _______ _______ _______ _____ _____    ______ ____
ROOT
ATOM      1  S   UNL     1     -33.298 -11.844  16.380  0.00  0.00    +0.061 S 
ATOM      2  O   UNL     1     -34.765 -11.972  16.082  0.00  0.00    -0.153 OA
ATOM      3  O   UNL     1     -33.021 -12.583  17.660  0.00  0.00    -0.153 OA
ENDROOT
BRANCH   1   4
ATOM      4  C   UNL     1     -32.397 -12.599  15.059  0.00  0.00    +0.106 A 
ATOM      5  C   UNL     1     -31.398 -13.548  15.327  0.00  0.00    +0.031 A 
ATOM      6  C   UNL     1     -30.689 -14.141  14.279  0.00  0.00    +0.040 A 
ATOM      7  C   UNL     1     -30.987 -13.807  12.955  0.00  0.00    +0.124 A 
ATOM      8  F   UNL     1     -30.298 -14.383  11.939  0.00  0.00    -0.205 F 
ATOM      9  C   UNL     1     -32.002 -12.888  12.679  0.00  0.00    +0.040 A 
ATOM     10  C   UNL     1     -32.712 -12.292  13.726  0.00  0.00    +0.031 A 
ENDBRANCH   1   4
BRANCH   1  11
ATOM     11  N   UNL     1     -32.915 -10.148  16.599  0.00  0.00    -0.174 NA
ATOM     12  C   UNL     1     -33.910  -9.272  15.969  0.00  0.00    +0.132 C 
BRANCH  11  13
ATOM     13  C   UNL     1     -31.521  -9.805  16.253  0.00  0.00    +0.168 C 
BRANCH  13  17
ATOM     14  C   UNL     1     -27.885 -11.804  19.126  0.00  0.00    +0.089 C 
ATOM     15  C   UNL     1     -28.988 -10.957  18.591  0.00  0.00    +0.135 A 
ATOM     16  C   UNL     1     -29.623 -11.118  17.379  0.00  0.00    +0.072 A 
ATOM     17  C   UNL     1     -30.526 -10.076  17.350  0.00  0.00    +0.099 A 
ATOM     18  N   UNL     1     -30.439  -9.367  18.494  0.00  0.00    -0.082 NA
ATOM     19  O   UNL     1     -29.501  -9.919  19.209  0.00  0.00    -0.360 OA
ENDBRANCH  13  17
ENDBRANCH  11  13
ENDBRANCH   1  11
TORSDOF 4
ENDMDL
MODEL 8
REMARK VINA RESULT:    -4.127      2.271      2.772
REMARK INTER + INTRA:          -5.622
REMARK INTER:                  -5.188
REMARK INTRA:                  -0.434
REMARK UNBOUND:                -0.530
REMARK  Name = 
REMARK  6 active torsions:
REMARK  status: ('A' for Active; 'I' for Inactive)
REMARK    1  A    between atoms: C_1  and  C_2
REMARK    2  A    between atoms: C_4  and  C_5
REMARK    3  A    between atoms: C_5  and  N_6
REMARK    4  A    between atoms: N_6  and  C_7
REMARK    5  A    between atoms: N_6  and  S_8
REMARK    6  A    between atoms: S_8  and  C_11
REMARK                            x       y       z     vdW  Elec       q    Type
REMARK                         _______ _______ _______ _____ _____    ______ ____
ROOT
ATOM      1  S   UNL     1     -29.788 -11.023  18.228  0.00  0.00    +0.061 S 
ATOM      2  O   UNL     1     -28.308 -11.072  17.973  0.00  0.00    -0.153 OA
ATOM      3  O   UNL     1     -30.142  -9.618  18.630  0.00  0.00    -0.153 OA
ENDROOT
BRANCH   1   4
ATOM      4  C   UNL     1     -30.621 -11.430  16.721  0.00  0.00    +0.106 A 
ATOM      5  C   UNL     1     -31.513 -10.521  16.132  0.00  0.00    +0.031 A 
ATOM      6  C   UNL     1     -32.170 -10.848  14.941  0.00  0.00    +0.040 A 
ATOM      7  C   UNL     1     -31.923 -12.076  14.320  0.00  0.00    +0.124 A 
ATOM      8  F   UNL     1     -32.560 -12.392  13.166  0.00  0.00    -0.205 F 
ATOM      9  C   UNL     1     -31.011 -12.971  14.884  0.00  0.00    +0.040 A 
ATOM     10  C   UNL     1     -30.355 -12.648  16.076  0.00  0.00    +0.031 A 
ENDBRANCH   1   4
BRANCH   1  11
ATOM     11  N   UNL     1     -30.169 -12.113  19.545  0.00  0.00    -0.174 NA
ATOM     12  C   UNL     1     -31.602 -12.118  19.861  0.00  0.00    +0.132 C 
BRANCH  11  13
ATOM     13  C   UNL     1     -29.302 -11.938  20.729  0.00  0.00    +0.168 C 
BRANCH  13  17
ATOM     14  C   UNL     1     -25.339 -15.062  20.688  0.00  0.00    +0.089 C 
ATOM     15  C   UNL     1     -26.668 -14.434  20.932  0.00  0.00    +0.135 A 
ATOM     16  C   UNL     1     -27.092 -13.216  20.448  0.00  0.00    +0.072 A 
ATOM     17  C   UNL     1     -28.358 -13.084  20.980  0.00  0.00    +0.099 A 
ATOM     18  N   UNL     1     -28.661 -14.178  21.708  0.00  0.00    -0.082 NA
ATOM     19  O   UNL     1     -27.621 -14.960  21.663  0.00  0.00    -0.360 OA
ENDBRANCH  13  17
ENDBRANCH  11  13
ENDBRANCH   1  11
TORSDOF 4
ENDMDL
MODEL 9
REMARK VINA RESULT:    -3.821      3.219      5.531
REMARK INTER + INTRA:          -5.245
REMARK INTER:                  -4.747
REMARK INTRA:                  -0.498
REMARK UNBOUND:                -0.530
REMARK  Name = 
REMARK  6 active torsions:
REMARK  status: ('A' for Active; 'I' for Inactive)
REMARK    1  A    between atoms: C_1  and  C_2
REMARK    2  A    between atoms: C_4  and  C_5
REMARK    3  A    between atoms: C_5  and  N_6
REMARK    4  A    between atoms: N_6  and  C_7
REMARK    5  A    between atoms: N_6  and  S_8
REMARK    6  A    between atoms: S_8  and  C_11
REMARK                            x       y       z     vdW  Elec       q    Type
REMARK                         _______ _______ _______ _____ _____    ______ ____
ROOT
ATOM      1  S   UNL     1     -29.435 -11.398  18.898  0.00  0.00    +0.061 S 
ATOM      2  O   UNL     1     -30.030 -10.363  19.811  0.00  0.00    -0.153 OA
ATOM      3  O   UNL     1     -28.660 -10.680  17.829  0.00  0.00    -0.153 OA
ENDROOT
BRANCH   1   4
ATOM      4  C   UNL     1     -28.334 -12.404  19.848  0.00  0.00    +0.106 A 
ATOM      5  C   UNL     1     -28.787 -13.069  20.998  0.00  0.00    +0.031 A 
ATOM      6  C   UNL     1     -27.912 -13.862  21.746  0.00  0.00    +0.040 A 
ATOM      7  C   UNL     1     -26.584 -14.015  21.337  0.00  0.00    +0.124 A 
ATOM      8  F   UNL     1     -25.735 -14.785  22.062  0.00  0.00    -0.205 F 
ATOM      9  C   UNL     1     -26.135 -13.383  20.175  0.00  0.00    +0.040 A 
ATOM     10  C   UNL     1     -27.007 -12.588  19.427  0.00  0.00    +0.031 A 
ENDBRANCH   1   4
BRANCH   1  11
ATOM     11  N   UNL     1     -30.736 -12.306  18.155  0.00  0.00    -0.174 NA
ATOM     12  C   UNL     1     -32.021 -12.080  18.828  0.00  0.00    +0.132 C 
BRANCH  11  13
ATOM     13  C   UNL     1     -30.420 -13.734  17.947  0.00  0.00    +0.168 C 
BRANCH  13  17
ATOM     14  C   UNL     1     -29.173 -15.063  13.241  0.00  0.00    +0.089 C 
ATOM     15  C   UNL     1     -29.139 -14.624  14.665  0.00  0.00    +0.135 A 
ATOM     16  C   UNL     1     -30.228 -14.470  15.494  0.00  0.00    +0.072 A 
ATOM     17  C   UNL     1     -29.670 -14.023  16.674  0.00  0.00    +0.099 A 
ATOM     18  N   UNL     1     -28.330 -13.950  16.544  0.00  0.00    -0.082 NA
ATOM     19  O   UNL     1     -28.049 -14.309  15.325  0.00  0.00    -0.360 OA
ENDBRANCH  13  17
ENDBRANCH  11  13
ENDBRANCH   1  11
TORSDOF 4
ENDMDL
