MODEL 1
REMARK VINA RESULT:    -5.218      0.000      0.000
REMARK INTER + INTRA:          -8.156
REMARK INTER:                  -7.201
REMARK INTRA:                  -0.955
REMARK UNBOUND:                -0.955
REMARK  Name = 
REMARK  7 active torsions:
REMARK  status: ('A' for Active; 'I' for Inactive)
REMARK    1  A    between atoms: C_2  and  C_4
REMARK    2  A    between atoms: C_8  and  C_10
REMARK    3  A    between atoms: N_12  and  CA_13
REMARK    4  A    between atoms: CA_13  and  CB_14
REMARK    5  A    between atoms: CA_13  and  C_21
REMARK    6  A    between atoms: CB_14  and  CG_15
REMARK    7  A    between atoms: C_21  and  OXT_23
REMARK                            x       y       z     vdW  Elec       q    Type
REMARK                         _______ _______ _______ _____ _____    ______ ____
ROOT
ATOM      1  C   UNK A   0     -29.951 -14.062  16.759  0.00  0.00    +0.245 C 
ATOM      2  O   UNK A   0     -30.569 -14.890  17.482  0.00  0.00    -0.270 OA
ATOM      3  N   PHE A   1     -29.238 -12.976  17.372  0.00  0.00    -0.298 N 
ATOM      4  H   PHE A   1     -28.863 -12.210  16.769  0.00  0.00    +0.150 HD
ENDROOT
BRANCH   1   9
ATOM      5  C   UNK A   0     -31.066 -13.780  13.125  0.00  0.00    +0.037 A 
ATOM      6  C   UNK A   0     -30.037 -14.496  12.488  0.00  0.00    +0.013 A 
ATOM      7  C   UNK A   0     -29.002 -15.062  13.234  0.00  0.00    +0.001 A 
ATOM      8  C   UNK A   0     -28.979 -14.922  14.622  0.00  0.00    +0.013 A 
ATOM      9  C   UNK A   0     -29.995 -14.214  15.284  0.00  0.00    +0.037 A 
ATOM     10  C   UNK A   0     -31.028 -13.632  14.525  0.00  0.00    +0.026 A 
BRANCH   5  12
ATOM     11  N   UNK A   0     -33.309 -13.921  11.938  0.00  0.00    -0.325 N 
ATOM     12  C   UNK A   0     -32.151 -13.172  12.317  0.00  0.00    +0.242 C 
ATOM     13  O   UNK A   0     -32.052 -11.973  11.941  0.00  0.00    -0.270 OA
ATOM     14  H   UNK A   0     -34.085 -13.453  11.420  0.00  0.00    +0.145 HD
ATOM     15  H   UNK A   0     -33.369 -14.952  12.085  0.00  0.00    +0.145 HD
ENDBRANCH   5  12
ENDBRANCH   1   9
BRANCH   3  16
ATOM     16  CA  PHE A   1     -29.041 -12.899  18.824  0.00  0.00    +0.186 C 
BRANCH  16  17
ATOM     17  C   PHE A   1     -27.574 -12.821  19.133  0.00  0.00    +0.326 C 
ATOM     18  O   PHE A   1     -26.985 -11.707  19.141  0.00  0.00    -0.249 OA
BRANCH  17  19
ATOM     19  OXT PHE A   1     -26.869 -13.981  19.438  0.00  0.00    -0.479 OA
ATOM     20  HXT PHE A   1     -26.362 -14.485  18.720  0.00  0.00    +0.295 HD
ENDBRANCH  17  19
ENDBRANCH  16  17
BRANCH  16  21
ATOM     21  CB  PHE A   1     -29.768 -11.678  19.421  0.00  0.00    +0.069 C 
BRANCH  21  22
ATOM     22  CG  PHE A   1     -30.652 -11.008  18.398  0.00  0.00    -0.045 A 
ATOM     23  CD1 PHE A   1     -30.099 -10.182  17.405  0.00  0.00    +0.004 A 
ATOM     24  CE1 PHE A   1     -30.922  -9.586  16.445  0.00  0.00    +0.000 A 
ATOM     25  CZ  PHE A   1     -32.301  -9.812  16.466  0.00  0.00    +0.000 A 
ATOM     26  CE2 PHE A   1     -32.859 -10.636  17.448  0.00  0.00    +0.000 A 
ATOM     27  CD2 PHE A   1     -32.039 -11.234  18.410  0.00  0.00    +0.004 A 
ENDBRANCH  21  22
ENDBRANCH  16  21
ENDBRANCH   3  16
TORSDOF 7
ENDMDL
MODEL 2
REMARK VINA RESULT:    -5.046      2.820      4.611
REMARK INTER + INTRA:          -7.918
REMARK INTER:                  -6.943
REMARK INTRA:                  -0.975
REMARK UNBOUND:                -0.955
REMARK  Name = 
REMARK  7 active torsions:
REMARK  status: ('A' for Active; 'I' for Inactive)
REMARK    1  A    between atoms: C_2  and  C_4
REMARK    2  A    between atoms: C_8  and  C_10
REMARK    3  A    between atoms: N_12  and  CA_13
REMARK    4  A    between atoms: CA_13  and  CB_14
REMARK    5  A    between atoms: CA_13  and  C_21
REMARK    6  A    between atoms: CB_14  and  CG_15
REMARK    7  A    between atoms: C_21  and  OXT_23
REMARK                            x       y       z     vdW  Elec       q    Type
REMARK                         _______ _______ _______ _____ _____    ______ ____
ROOT
ATOM      1  C   UNK A   0     -31.133  -9.895  16.540  0.00  0.00    +0.245 C 
ATOM      2  O   UNK A   0     -30.092  -9.379  16.049  0.00  0.00    -0.270 OA
ATOM      3  N   PHE A   1     -31.118 -10.371  17.896  0.00  0.00    -0.298 N 
ATOM      4  H   PHE A   1     -31.925 -10.934  18.245  0.00  0.00    +0.150 HD
ENDROOT
BRANCH   1   9
ATOM      5  C   UNK A   0     -33.597 -11.130  13.907  0.00  0.00    +0.037 A 
ATOM      6  C   UNK A   0     -34.671 -10.252  14.133  0.00  0.00    +0.013 A 
ATOM      7  C   UNK A   0     -34.588  -9.273  15.126  0.00  0.00    +0.001 A 
ATOM      8  C   UNK A   0     -33.436  -9.158  15.904  0.00  0.00    +0.013 A 
ATOM      9  C   UNK A   0     -32.347 -10.021  15.698  0.00  0.00    +0.037 A 
ATOM     10  C   UNK A   0     -32.442 -11.016  14.705  0.00  0.00    +0.026 A 
BRANCH   5  12
ATOM     11  N   UNK A   0     -34.938 -12.850  12.602  0.00  0.00    -0.325 N 
ATOM     12  C   UNK A   0     -33.704 -12.173  12.859  0.00  0.00    +0.242 C 
ATOM     13  O   UNK A   0     -32.686 -12.488  12.185  0.00  0.00    -0.270 OA
ATOM     14  H   UNK A   0     -35.001 -13.539  11.820  0.00  0.00    +0.145 HD
ATOM     15  H   UNK A   0     -35.764 -12.744  13.231  0.00  0.00    +0.145 HD
ENDBRANCH   5  12
ENDBRANCH   1   9
BRANCH   3  16
ATOM     16  CA  PHE A   1     -29.990 -10.109  18.797  0.00  0.00    +0.186 C 
BRANCH  16  17
ATOM     17  C   PHE A   1     -30.466  -9.331  19.990  0.00  0.00    +0.326 C 
ATOM     18  O   PHE A   1     -31.368  -9.800  20.736  0.00  0.00    -0.249 OA
BRANCH  17  19
ATOM     19  OXT PHE A   1     -29.891  -8.100  20.288  0.00  0.00    -0.479 OA
ATOM     20  HXT PHE A   1     -29.624  -7.867  21.236  0.00  0.00    +0.295 HD
ENDBRANCH  17  19
ENDBRANCH  16  17
BRANCH  16  21
ATOM     21  CB  PHE A   1     -29.329 -11.422  19.258  0.00  0.00    +0.069 C 
BRANCH  21  22
ATOM     22  CG  PHE A   1     -29.662 -12.563  18.330  0.00  0.00    -0.045 A 
ATOM     23  CD1 PHE A   1     -30.837 -13.313  18.509  0.00  0.00    +0.004 A 
ATOM     24  CE1 PHE A   1     -31.152 -14.351  17.628  0.00  0.00    +0.000 A 
ATOM     25  CZ  PHE A   1     -30.300 -14.648  16.561  0.00  0.00    +0.000 A 
ATOM     26  CE2 PHE A   1     -29.131 -13.905  16.373  0.00  0.00    +0.000 A 
ATOM     27  CD2 PHE A   1     -28.812 -12.865  17.251  0.00  0.00    +0.004 A 
ENDBRANCH  21  22
ENDBRANCH  16  21
ENDBRANCH   3  16
TORSDOF 7
ENDMDL
MODEL 3
REMARK VINA RESULT:    -5.026      1.990      4.063
REMARK INTER + INTRA:          -7.891
REMARK INTER:                  -7.135
REMARK INTRA:                  -0.756
REMARK UNBOUND:                -0.955
REMARK  Name = 
REMARK  7 active torsions:
REMARK  status: ('A' for Active; 'I' for Inactive)
REMARK    1  A    between atoms: C_2  and  C_4
REMARK    2  A    between atoms: C_8  and  C_10
REMARK    3  A    between atoms: N_12  and  CA_13
REMARK    4  A    between atoms: CA_13  and  CB_14
REMARK    5  A    between atoms: CA_13  and  C_21
REMARK    6  A    between atoms: CB_14  and  CG_15
REMARK    7  A    between atoms: C_21  and  OXT_23
REMARK                            x       y       z     vdW  Elec       q    Type
REMARK                         _______ _______ _______ _____ _____    ______ ____
ROOT
ATOM      1  C   UNK A   0     -29.508 -13.152  16.484  0.00  0.00    +0.245 C 
ATOM      2  O   UNK A   0     -28.515 -13.852  16.825  0.00  0.00    -0.270 OA
ATOM      3  N   PHE A   1     -29.986 -12.122  17.365  0.00  0.00    -0.298 N 
ATOM      4  H   PHE A   1     -30.895 -11.655  17.152  0.00  0.00    +0.150 HD
ENDROOT
BRANCH   1   9
ATOM      5  C   UNK A   0     -32.023 -13.060  13.623  0.00  0.00    +0.037 A 
ATOM      6  C   UNK A   0     -31.406 -13.937  12.714  0.00  0.00    +0.013 A 
ATOM      7  C   UNK A   0     -30.193 -14.550  13.034  0.00  0.00    +0.001 A 
ATOM      8  C   UNK A   0     -29.580 -14.295  14.262  0.00  0.00    +0.013 A 
ATOM      9  C   UNK A   0     -30.176 -13.424  15.189  0.00  0.00    +0.037 A 
ATOM     10  C   UNK A   0     -31.392 -12.797  14.854  0.00  0.00    +0.026 A 
BRANCH   5  12
ATOM     11  N   UNK A   0     -34.141 -12.923  12.225  0.00  0.00    -0.325 N 
ATOM     12  C   UNK A   0     -33.305 -12.406  13.263  0.00  0.00    +0.242 C 
ATOM     13  O   UNK A   0     -33.664 -11.361  13.870  0.00  0.00    -0.270 OA
ATOM     14  H   UNK A   0     -35.066 -12.478  12.031  0.00  0.00    +0.145 HD
ATOM     15  H   UNK A   0     -33.820 -13.684  11.588  0.00  0.00    +0.145 HD
ENDBRANCH   5  12
ENDBRANCH   1   9
BRANCH   3  16
ATOM     16  CA  PHE A   1     -29.246 -11.725  18.568  0.00  0.00    +0.186 C 
BRANCH  16  17
ATOM     17  C   PHE A   1     -29.608 -10.317  18.944  0.00  0.00    +0.326 C 
ATOM     18  O   PHE A   1     -30.081  -9.530  18.079  0.00  0.00    -0.249 OA
BRANCH  17  19
ATOM     19  OXT PHE A   1     -29.446  -9.888  20.257  0.00  0.00    -0.479 OA
ATOM     20  HXT PHE A   1     -29.759 -10.459  21.033  0.00  0.00    +0.295 HD
ENDBRANCH  17  19
ENDBRANCH  16  17
BRANCH  16  21
ATOM     21  CB  PHE A   1     -29.545 -12.674  19.744  0.00  0.00    +0.069 C 
BRANCH  21  22
ATOM     22  CG  PHE A   1     -28.276 -13.230  20.342  0.00  0.00    -0.045 A 
ATOM     23  CD1 PHE A   1     -28.313 -13.981  21.529  0.00  0.00    +0.004 A 
ATOM     24  CE1 PHE A   1     -27.137 -14.515  22.062  0.00  0.00    +0.000 A 
ATOM     25  CZ  PHE A   1     -25.916 -14.307  21.414  0.00  0.00    +0.000 A 
ATOM     26  CE2 PHE A   1     -25.871 -13.566  20.230  0.00  0.00    +0.000 A 
ATOM     27  CD2 PHE A   1     -27.045 -13.030  19.694  0.00  0.00    +0.004 A 
ENDBRANCH  21  22
ENDBRANCH  16  21
ENDBRANCH   3  16
TORSDOF 7
ENDMDL
MODEL 4
REMARK VINA RESULT:    -4.948      3.300      5.091
REMARK INTER + INTRA:          -7.784
REMARK INTER:                  -6.930
REMARK INTRA:                  -0.853
REMARK UNBOUND:                -0.955
REMARK  Name = 
REMARK  7 active torsions:
REMARK  status: ('A' for Active; 'I' for Inactive)
REMARK    1  A    between atoms: C_2  and  C_4
REMARK    2  A    between atoms: C_8  and  C_10
REMARK    3  A    between atoms: N_12  and  CA_13
REMARK    4  A    between atoms: CA_13  and  CB_14
REMARK    5  A    between atoms: CA_13  and  C_21
REMARK    6  A    between atoms: CB_14  and  CG_15
REMARK    7  A    between atoms: C_21  and  OXT_23
REMARK                            x       y       z     vdW  Elec       q    Type
REMARK                         _______ _______ _______ _____ _____    ______ ____
ROOT
ATOM      1  C   UNK A   0     -31.391  -9.817  16.835  0.00  0.00    +0.245 C 
ATOM      2  O   UNK A   0     -30.233  -9.532  16.423  0.00  0.00    -0.270 OA
ATOM      3  N   PHE A   1     -31.624  -9.977  18.244  0.00  0.00    -0.298 N 
ATOM      4  H   PHE A   1     -32.538 -10.364  18.566  0.00  0.00    +0.150 HD
ENDROOT
BRANCH   1   9
ATOM      5  C   UNK A   0     -33.509 -11.253  14.011  0.00  0.00    +0.037 A 
ATOM      6  C   UNK A   0     -34.585 -10.349  14.017  0.00  0.00    +0.013 A 
ATOM      7  C   UNK A   0     -34.614  -9.289  14.924  0.00  0.00    +0.001 A 
ATOM      8  C   UNK A   0     -33.573  -9.116  15.836  0.00  0.00    +0.013 A 
ATOM      9  C   UNK A   0     -32.485 -10.004  15.852  0.00  0.00    +0.037 A 
ATOM     10  C   UNK A   0     -32.469 -11.081  14.944  0.00  0.00    +0.026 A 
BRANCH   5  12
ATOM     11  N   UNK A   0     -34.628 -12.667  12.220  0.00  0.00    -0.325 N 
ATOM     12  C   UNK A   0     -33.499 -12.383  13.051  0.00  0.00    +0.242 C 
ATOM     13  O   UNK A   0     -32.482 -13.124  12.970  0.00  0.00    -0.270 OA
ATOM     14  H   UNK A   0     -34.573 -13.432  11.511  0.00  0.00    +0.145 HD
ATOM     15  H   UNK A   0     -35.545 -12.190  12.357  0.00  0.00    +0.145 HD
ENDBRANCH   5  12
ENDBRANCH   1   9
BRANCH   3  16
ATOM     16  CA  PHE A   1     -30.604  -9.636  19.242  0.00  0.00    +0.186 C 
BRANCH  16  17
ATOM     17  C   PHE A   1     -30.886  -8.275  19.810  0.00  0.00    +0.326 C 
ATOM     18  O   PHE A   1     -32.021  -7.746  19.658  0.00  0.00    -0.249 OA
BRANCH  17  19
ATOM     19  OXT PHE A   1     -29.900  -7.606  20.527  0.00  0.00    -0.479 OA
ATOM     20  HXT PHE A   1     -29.717  -7.835  21.497  0.00  0.00    +0.295 HD
ENDBRANCH  17  19
ENDBRANCH  16  17
BRANCH  16  21
ATOM     21  CB  PHE A   1     -30.564 -10.678  20.377  0.00  0.00    +0.069 C 
BRANCH  21  22
ATOM     22  CG  PHE A   1     -29.359 -11.577  20.259  0.00  0.00    -0.045 A 
ATOM     23  CD1 PHE A   1     -29.115 -12.577  21.216  0.00  0.00    +0.004 A 
ATOM     24  CE1 PHE A   1     -28.011 -13.424  21.086  0.00  0.00    +0.000 A 
ATOM     25  CZ  PHE A   1     -27.144 -13.282  19.999  0.00  0.00    +0.000 A 
ATOM     26  CE2 PHE A   1     -27.380 -12.293  19.040  0.00  0.00    +0.000 A 
ATOM     27  CD2 PHE A   1     -28.484 -11.444  19.167  0.00  0.00    +0.004 A 
ENDBRANCH  21  22
ENDBRANCH  16  21
ENDBRANCH   3  16
TORSDOF 7
ENDMDL
MODEL 5
REMARK VINA RESULT:    -4.786      3.140      6.844
REMARK INTER + INTRA:          -7.560
REMARK INTER:                  -6.634
REMARK INTRA:                  -0.926
REMARK UNBOUND:                -0.955
REMARK  Name = 
REMARK  7 active torsions:
REMARK  status: ('A' for Active; 'I' for Inactive)
REMARK    1  A    between atoms: C_2  and  C_4
REMARK    2  A    between atoms: C_8  and  C_10
REMARK    3  A    between atoms: N_12  and  CA_13
REMARK    4  A    between atoms: CA_13  and  CB_14
REMARK    5  A    between atoms: CA_13  and  C_21
REMARK    6  A    between atoms: CB_14  and  CG_15
REMARK    7  A    between atoms: C_21  and  OXT_23
REMARK                            x       y       z     vdW  Elec       q    Type
REMARK                         _______ _______ _______ _____ _____    ______ ____
ROOT
ATOM      1  C   UNK A   0     -30.418 -10.257  17.709  0.00  0.00    +0.245 C 
ATOM      2  O   UNK A   0     -30.051 -10.007  16.529  0.00  0.00    -0.270 OA
ATOM      3  N   PHE A   1     -30.018 -11.489  18.331  0.00  0.00    -0.298 N 
ATOM      4  H   PHE A   1     -30.450 -11.761  19.242  0.00  0.00    +0.150 HD
ENDROOT
BRANCH   1   9
ATOM      5  C   UNK A   0     -31.615  -7.651  20.219  0.00  0.00    +0.037 A 
ATOM      6  C   UNK A   0     -32.916  -7.419  19.743  0.00  0.00    +0.013 A 
ATOM      7  C   UNK A   0     -33.394  -8.105  18.625  0.00  0.00    +0.001 A 
ATOM      8  C   UNK A   0     -32.580  -9.030  17.968  0.00  0.00    +0.013 A 
ATOM      9  C   UNK A   0     -31.276  -9.282  18.424  0.00  0.00    +0.037 A 
ATOM     10  C   UNK A   0     -30.795  -8.575  19.543  0.00  0.00    +0.026 A 
BRANCH   5  12
ATOM     11  N   UNK A   0     -29.753  -6.996  21.820  0.00  0.00    -0.325 N 
ATOM     12  C   UNK A   0     -31.116  -6.904  21.400  0.00  0.00    +0.242 C 
ATOM     13  O   UNK A   0     -31.910  -6.182  22.062  0.00  0.00    -0.270 OA
ATOM     14  H   UNK A   0     -29.414  -6.415  22.619  0.00  0.00    +0.145 HD
ATOM     15  H   UNK A   0     -29.096  -7.695  21.410  0.00  0.00    +0.145 HD
ENDBRANCH   5  12
ENDBRANCH   1   9
BRANCH   3  16
ATOM     16  CA  PHE A   1     -29.038 -12.388  17.711  0.00  0.00    +0.186 C 
BRANCH  16  17
ATOM     17  C   PHE A   1     -27.867 -12.573  18.632  0.00  0.00    +0.326 C 
ATOM     18  O   PHE A   1     -27.257 -11.571  19.094  0.00  0.00    -0.249 OA
BRANCH  17  19
ATOM     19  OXT PHE A   1     -27.469 -13.855  18.997  0.00  0.00    -0.479 OA
ATOM     20  HXT PHE A   1     -27.712 -14.657  18.427  0.00  0.00    +0.295 HD
ENDBRANCH  17  19
ENDBRANCH  16  17
BRANCH  16  21
ATOM     21  CB  PHE A   1     -29.667 -13.756  17.383  0.00  0.00    +0.069 C 
BRANCH  21  22
ATOM     22  CG  PHE A   1     -29.884 -13.923  15.900  0.00  0.00    -0.045 A 
ATOM     23  CD1 PHE A   1     -30.978 -13.313  15.263  0.00  0.00    +0.004 A 
ATOM     24  CE1 PHE A   1     -31.157 -13.449  13.884  0.00  0.00    +0.000 A 
ATOM     25  CZ  PHE A   1     -30.246 -14.193  13.129  0.00  0.00    +0.000 A 
ATOM     26  CE2 PHE A   1     -29.152 -14.800  13.753  0.00  0.00    +0.000 A 
ATOM     27  CD2 PHE A   1     -28.969 -14.665  15.133  0.00  0.00    +0.004 A 
ENDBRANCH  21  22
ENDBRANCH  16  21
ENDBRANCH   3  16
TORSDOF 7
ENDMDL
MODEL 6
REMARK VINA RESULT:    -4.749      3.054      4.518
REMARK INTER + INTRA:          -7.509
REMARK INTER:                  -6.497
REMARK INTRA:                  -1.012
REMARK UNBOUND:                -0.955
REMARK  Name = 
REMARK  7 active torsions:
REMARK  status: ('A' for Active; 'I' for Inactive)
REMARK    1  A    between atoms: C_2  and  C_4
REMARK    2  A    between atoms: C_8  and  C_10
REMARK    3  A    between atoms: N_12  and  CA_13
REMARK    4  A    between atoms: CA_13  and  CB_14
REMARK    5  A    between atoms: CA_13  and  C_21
REMARK    6  A    between atoms: CB_14  and  CG_15
REMARK    7  A    between atoms: C_21  and  OXT_23
REMARK                            x       y       z     vdW  Elec       q    Type
REMARK                         _______ _______ _______ _____ _____    ______ ____
ROOT
ATOM      1  C   UNK A   0     -31.028 -10.005  16.561  0.00  0.00    +0.245 C 
ATOM      2  O   UNK A   0     -30.196  -9.138  16.178  0.00  0.00    -0.270 OA
ATOM      3  N   PHE A   1     -31.519  -9.972  17.911  0.00  0.00    -0.298 N 
ATOM      4  H   PHE A   1     -32.082 -10.776  18.266  0.00  0.00    +0.150 HD
ENDROOT
BRANCH   1   9
ATOM      5  C   UNK A   0     -33.002 -11.872  13.888  0.00  0.00    +0.037 A 
ATOM      6  C   UNK A   0     -32.257 -13.061  13.806  0.00  0.00    +0.013 A 
ATOM      7  C   UNK A   0     -31.133 -13.249  14.613  0.00  0.00    +0.001 A 
ATOM      8  C   UNK A   0     -30.738 -12.255  15.510  0.00  0.00    +0.013 A 
ATOM      9  C   UNK A   0     -31.466 -11.058  15.613  0.00  0.00    +0.037 A 
ATOM     10  C   UNK A   0     -32.589 -10.868  14.785  0.00  0.00    +0.026 A 
BRANCH   5  12
ATOM     11  N   UNK A   0     -34.773 -12.774  12.304  0.00  0.00    -0.325 N 
ATOM     12  C   UNK A   0     -34.185 -11.681  13.014  0.00  0.00    +0.242 C 
ATOM     13  O   UNK A   0     -34.680 -10.530  12.877  0.00  0.00    -0.270 OA
ATOM     14  H   UNK A   0     -35.640 -12.623  11.742  0.00  0.00    +0.145 HD
ATOM     15  H   UNK A   0     -34.313 -13.709  12.254  0.00  0.00    +0.145 HD
ENDBRANCH   5  12
ENDBRANCH   1   9
BRANCH   3  16
ATOM     16  CA  PHE A   1     -31.232  -8.850  18.813  0.00  0.00    +0.186 C 
BRANCH  16  17
ATOM     17  C   PHE A   1     -32.510  -8.149  19.171  0.00  0.00    +0.326 C 
ATOM     18  O   PHE A   1     -33.191  -8.534  20.160  0.00  0.00    -0.249 OA
BRANCH  17  19
ATOM     19  OXT PHE A   1     -32.930  -7.054  18.424  0.00  0.00    -0.479 OA
ATOM     20  HXT PHE A   1     -32.282  -6.547  17.833  0.00  0.00    +0.295 HD
ENDBRANCH  17  19
ENDBRANCH  16  17
BRANCH  16  21
ATOM     21  CB  PHE A   1     -30.523  -9.333  20.093  0.00  0.00    +0.069 C 
BRANCH  21  22
ATOM     22  CG  PHE A   1     -30.003 -10.740  19.939  0.00  0.00    -0.045 A 
ATOM     23  CD1 PHE A   1     -30.741 -11.833  20.424  0.00  0.00    +0.004 A 
ATOM     24  CE1 PHE A   1     -30.266 -13.137  20.254  0.00  0.00    +0.000 A 
ATOM     25  CZ  PHE A   1     -29.053 -13.360  19.597  0.00  0.00    +0.000 A 
ATOM     26  CE2 PHE A   1     -28.314 -12.279  19.107  0.00  0.00    +0.000 A 
ATOM     27  CD2 PHE A   1     -28.786 -10.974  19.275  0.00  0.00    +0.004 A 
ENDBRANCH  21  22
ENDBRANCH  16  21
ENDBRANCH   3  16
TORSDOF 7
ENDMDL
MODEL 7
REMARK VINA RESULT:    -4.743      3.297      6.292
REMARK INTER + INTRA:          -7.501
REMARK INTER:                  -6.694
REMARK INTRA:                  -0.807
REMARK UNBOUND:                -0.955
REMARK  Name = 
REMARK  7 active torsions:
REMARK  status: ('A' for Active; 'I' for Inactive)
REMARK    1  A    between atoms: C_2  and  C_4
REMARK    2  A    between atoms: C_8  and  C_10
REMARK    3  A    between atoms: N_12  and  CA_13
REMARK    4  A    between atoms: CA_13  and  CB_14
REMARK    5  A    between atoms: CA_13  and  C_21
REMARK    6  A    between atoms: CB_14  and  CG_15
REMARK    7  A    between atoms: C_21  and  OXT_23
REMARK                            x       y       z     vdW  Elec       q    Type
REMARK                         _______ _______ _______ _____ _____    ______ ____
ROOT
ATOM      1  C   UNK A   0     -30.279 -10.385  17.947  0.00  0.00    +0.245 C 
ATOM      2  O   UNK A   0     -29.784 -10.089  16.825  0.00  0.00    -0.270 OA
ATOM      3  N   PHE A   1     -30.169 -11.730  18.439  0.00  0.00    -0.298 N 
ATOM      4  H   PHE A   1     -30.710 -12.006  19.288  0.00  0.00    +0.150 HD
ENDROOT
BRANCH   1   9
ATOM      5  C   UNK A   0     -32.866  -7.797  19.013  0.00  0.00    +0.037 A 
ATOM      6  C   UNK A   0     -32.317  -7.379  20.238  0.00  0.00    +0.013 A 
ATOM      7  C   UNK A   0     -31.122  -7.931  20.703  0.00  0.00    +0.001 A 
ATOM      8  C   UNK A   0     -30.460  -8.905  19.954  0.00  0.00    +0.013 A 
ATOM      9  C   UNK A   0     -30.986  -9.340  18.727  0.00  0.00    +0.037 A 
ATOM     10  C   UNK A   0     -32.200  -8.790  18.270  0.00  0.00    +0.026 A 
BRANCH   5  12
ATOM     11  N   UNK A   0     -34.356  -6.903  17.159  0.00  0.00    -0.325 N 
ATOM     12  C   UNK A   0     -34.144  -7.212  18.539  0.00  0.00    +0.242 C 
ATOM     13  O   UNK A   0     -35.062  -6.965  19.366  0.00  0.00    -0.270 OA
ATOM     14  H   UNK A   0     -35.285  -6.546  16.843  0.00  0.00    +0.145 HD
ATOM     15  H   UNK A   0     -33.581  -6.937  16.462  0.00  0.00    +0.145 HD
ENDBRANCH   5  12
ENDBRANCH   1   9
BRANCH   3  16
ATOM     16  CA  PHE A   1     -29.335 -12.735  17.769  0.00  0.00    +0.186 C 
BRANCH  16  17
ATOM     17  C   PHE A   1     -28.290 -13.242  18.721  0.00  0.00    +0.326 C 
ATOM     18  O   PHE A   1     -27.145 -12.715  18.746  0.00  0.00    -0.249 OA
BRANCH  17  19
ATOM     19  OXT PHE A   1     -28.596 -14.280  19.595  0.00  0.00    -0.479 OA
ATOM     20  HXT PHE A   1     -27.863 -14.844  20.008  0.00  0.00    +0.295 HD
ENDBRANCH  17  19
ENDBRANCH  16  17
BRANCH  16  21
ATOM     21  CB  PHE A   1     -30.188 -13.911  17.253  0.00  0.00    +0.069 C 
BRANCH  21  22
ATOM     22  CG  PHE A   1     -30.123 -14.021  15.750  0.00  0.00    -0.045 A 
ATOM     23  CD1 PHE A   1     -29.069 -14.711  15.128  0.00  0.00    +0.004 A 
ATOM     24  CE1 PHE A   1     -29.030 -14.832  13.736  0.00  0.00    +0.000 A 
ATOM     25  CZ  PHE A   1     -30.043 -14.269  12.955  0.00  0.00    +0.000 A 
ATOM     26  CE2 PHE A   1     -31.098 -13.585  13.565  0.00  0.00    +0.000 A 
ATOM     27  CD2 PHE A   1     -31.141 -13.462  14.958  0.00  0.00    +0.004 A 
ENDBRANCH  21  22
ENDBRANCH  16  21
ENDBRANCH   3  16
TORSDOF 7
ENDMDL
MODEL 8
REMARK VINA RESULT:    -4.733      2.887      6.901
REMARK INTER + INTRA:          -7.486
REMARK INTER:                  -6.646
REMARK INTRA:                  -0.841
REMARK UNBOUND:                -0.955
REMARK  Name = 
REMARK  7 active torsions:
REMARK  status: ('A' for Active; 'I' for Inactive)
REMARK    1  A    between atoms: C_2  and  C_4
REMARK    2  A    between atoms: C_8  and  C_10
REMARK    3  A    between atoms: N_12  and  CA_13
REMARK    4  A    between atoms: CA_13  and  CB_14
REMARK    5  A    between atoms: CA_13  and  C_21
REMARK    6  A    between atoms: CB_14  and  CG_15
REMARK    7  A    between atoms: C_21  and  OXT_23
REMARK                            x       y       z     vdW  Elec       q    Type
REMARK                         _______ _______ _______ _____ _____    ______ ____
ROOT
ATOM      1  C   UNK A   0     -32.014 -12.056  18.441  0.00  0.00    +0.245 C 
ATOM      2  O   UNK A   0     -32.627 -13.124  18.168  0.00  0.00    -0.270 OA
ATOM      3  N   PHE A   1     -32.319 -10.856  17.712  0.00  0.00    -0.298 N 
ATOM      4  H   PHE A   1     -31.706 -10.019  17.832  0.00  0.00    +0.150 HD
ENDROOT
BRANCH   1   9
ATOM      5  C   UNK A   0     -28.802 -12.821  20.345  0.00  0.00    +0.037 A 
ATOM      6  C   UNK A   0     -29.002 -12.048  21.501  0.00  0.00    +0.013 A 
ATOM      7  C   UNK A   0     -30.167 -11.294  21.656  0.00  0.00    +0.001 A 
ATOM      8  C   UNK A   0     -31.146 -11.302  20.661  0.00  0.00    +0.013 A 
ATOM      9  C   UNK A   0     -30.972 -12.067  19.496  0.00  0.00    +0.037 A 
ATOM     10  C   UNK A   0     -29.788 -12.813  19.339  0.00  0.00    +0.026 A 
BRANCH   5  12
ATOM     11  N   UNK A   0     -27.496 -14.993  20.531  0.00  0.00    -0.325 N 
ATOM     12  C   UNK A   0     -27.553 -13.606  20.188  0.00  0.00    +0.242 C 
ATOM     13  O   UNK A   0     -26.511 -13.041  19.759  0.00  0.00    -0.270 OA
ATOM     14  H   UNK A   0     -26.621 -15.536  20.357  0.00  0.00    +0.145 HD
ATOM     15  H   UNK A   0     -28.275 -15.468  21.036  0.00  0.00    +0.145 HD
ENDBRANCH   5  12
ENDBRANCH   1   9
BRANCH   3  16
ATOM     16  CA  PHE A   1     -33.455 -10.779  16.786  0.00  0.00    +0.186 C 
BRANCH  16  17
ATOM     17  C   PHE A   1     -34.526  -9.903  17.369  0.00  0.00    +0.326 C 
ATOM     18  O   PHE A   1     -34.956  -8.909  16.723  0.00  0.00    -0.249 OA
BRANCH  17  19
ATOM     19  OXT PHE A   1     -35.062 -10.205  18.616  0.00  0.00    -0.479 OA
ATOM     20  HXT PHE A   1     -34.714  -9.755  19.455  0.00  0.00    +0.295 HD
ENDBRANCH  17  19
ENDBRANCH  16  17
BRANCH  16  21
ATOM     21  CB  PHE A   1     -33.018 -10.228  15.414  0.00  0.00    +0.069 C 
BRANCH  21  22
ATOM     22  CG  PHE A   1     -33.104 -11.286  14.342  0.00  0.00    -0.045 A 
ATOM     23  CD1 PHE A   1     -34.249 -11.396  13.535  0.00  0.00    +0.004 A 
ATOM     24  CE1 PHE A   1     -34.311 -12.361  12.526  0.00  0.00    +0.000 A 
ATOM     25  CZ  PHE A   1     -33.230 -13.221  12.312  0.00  0.00    +0.000 A 
ATOM     26  CE2 PHE A   1     -32.085 -13.116  13.107  0.00  0.00    +0.000 A 
ATOM     27  CD2 PHE A   1     -32.019 -12.151  14.117  0.00  0.00    +0.004 A 
ENDBRANCH  21  22
ENDBRANCH  16  21
ENDBRANCH   3  16
TORSDOF 7
ENDMDL
