MODEL 1
REMARK VINA RESULT:    -5.077      0.000      0.000
REMARK INTER + INTRA:          -9.782
REMARK INTER:                  -7.896
REMARK INTRA:                  -1.886
REMARK UNBOUND:                -1.886
REMARK  Name = 
REMARK  11 active torsions:
REMARK  status: ('A' for Active; 'I' for Inactive)
REMARK    1  A    between atoms: C_1  and  C_2
REMARK    2  A    between atoms: C_2  and  O_3
REMARK    3  A    between atoms: O_3  and  C_4
REMARK    4  A    between atoms: C_9  and  O_10
REMARK    5  A    between atoms: O_10  and  C_11
REMARK    6  A    between atoms: C_11  and  C_12
REMARK    7  A    between atoms: N_14  and  C_15
REMARK    8  A    between atoms: C_15  and  C_16
REMARK    9  A    between atoms: C_15  and  C_20
REMARK   10  A    between atoms: C_16  and  C_17
REMARK   11  A    between atoms: C_17  and  O_19
REMARK                            x       y       z     vdW  Elec       q    Type
REMARK                         _______ _______ _______ _____ _____    ______ ____
ROOT
ATOM      1  C   UNL     1     -30.978 -10.326  16.536  0.00  0.00    +0.251 C 
ATOM      2  O   UNL     1     -30.316  -9.727  15.644  0.00  0.00    -0.272 OA
ATOM      3  N   UNL     1     -31.279 -11.723  16.400  0.00  0.00    -0.305 N 
ATOM      4  H   UNL     1     -31.797 -12.193  17.176  0.00  0.00    +0.149 HD
ENDROOT
BRANCH   1   5
ATOM      5  C   UNL     1     -31.402  -9.578  17.761  0.00  0.00    +0.324 C 
BRANCH   5   6
ATOM      6  O   UNL     1     -30.313  -9.503  18.677  0.00  0.00    -0.479 OA
BRANCH   6  12
ATOM      7  C   UNL     1     -29.841 -11.382  20.112  0.00  0.00    +0.162 A 
ATOM      8  C   UNL     1     -29.023 -12.470  20.478  0.00  0.00    +0.049 A 
ATOM      9  C   UNL     1     -27.862 -12.753  19.753  0.00  0.00    +0.004 A 
ATOM     10  C   UNL     1     -27.506 -11.959  18.664  0.00  0.00    +0.004 A 
ATOM     11  C   UNL     1     -28.308 -10.877  18.293  0.00  0.00    +0.049 A 
ATOM     12  C   UNL     1     -29.481 -10.582  19.015  0.00  0.00    +0.163 A 
BRANCH   7  13
ATOM     13  O   UNL     1     -31.015 -11.065  20.813  0.00  0.00    -0.489 OA
BRANCH  13  15
ATOM     14  C   UNL     1     -33.387 -10.831  21.139  0.00  0.00    +0.048 C 
ATOM     15  C   UNL     1     -32.265 -11.726  20.638  0.00  0.00    +0.226 C 
ENDBRANCH  13  15
ENDBRANCH   7  13
ENDBRANCH   6  12
ENDBRANCH   5   6
ENDBRANCH   1   5
BRANCH   3  16
ATOM     16  C   UNL     1     -30.843 -12.510  15.239  0.00  0.00    +0.114 C 
BRANCH  16  17
ATOM     17  C   UNL     1     -31.936 -12.540  14.183  0.00  0.00    -0.027 A 
ATOM     18  C   UNL     1     -33.196 -11.960  14.426  0.00  0.00    +0.005 A 
ATOM     19  C   UNL     1     -34.196 -12.003  13.449  0.00  0.00    +0.000 A 
ATOM     20  C   UNL     1     -33.949 -12.622  12.221  0.00  0.00    +0.000 A 
ATOM     21  C   UNL     1     -32.702 -13.199  11.967  0.00  0.00    +0.000 A 
ATOM     22  C   UNL     1     -31.700 -13.160  12.942  0.00  0.00    +0.005 A 
ENDBRANCH  16  17
BRANCH  16  23
ATOM     23  C   UNL     1     -30.438 -13.927  15.685  0.00  0.00    +0.147 C 
BRANCH  23  24
ATOM     24  C   UNL     1     -30.979 -14.251  17.045  0.00  0.00    +0.307 C 
ATOM     25  O   UNL     1     -32.206 -14.097  17.290  0.00  0.00    -0.251 OA
BRANCH  24  26
ATOM     26  O   UNL     1     -30.131 -14.757  18.025  0.00  0.00    -0.481 OA
ATOM     27  H   UNL     1     -29.598 -15.603  17.865  0.00  0.00    +0.295 HD
ENDBRANCH  24  26
ENDBRANCH  23  24
ENDBRANCH  16  23
ENDBRANCH   3  16
TORSDOF 10
ENDMDL
MODEL 2
REMARK VINA RESULT:    -4.942      1.760      6.182
REMARK INTER + INTRA:          -9.572
REMARK INTER:                  -6.930
REMARK INTRA:                  -2.642
REMARK UNBOUND:                -1.886
REMARK  Name = 
REMARK  11 active torsions:
REMARK  status: ('A' for Active; 'I' for Inactive)
REMARK    1  A    between atoms: C_1  and  C_2
REMARK    2  A    between atoms: C_2  and  O_3
REMARK    3  A    between atoms: O_3  and  C_4
REMARK    4  A    between atoms: C_9  and  O_10
REMARK    5  A    between atoms: O_10  and  C_11
REMARK    6  A    between atoms: C_11  and  C_12
REMARK    7  A    between atoms: N_14  and  C_15
REMARK    8  A    between atoms: C_15  and  C_16
REMARK    9  A    between atoms: C_15  and  C_20
REMARK   10  A    between atoms: C_16  and  C_17
REMARK   11  A    between atoms: C_17  and  O_19
REMARK                            x       y       z     vdW  Elec       q    Type
REMARK                         _______ _______ _______ _____ _____    ______ ____
ROOT
ATOM      1  C   UNL     1     -30.351 -14.073  17.305  0.00  0.00    +0.251 C 
ATOM      2  O   UNL     1     -31.362 -14.741  17.658  0.00  0.00    -0.272 OA
ATOM      3  N   UNL     1     -29.656 -13.252  18.256  0.00  0.00    -0.305 N 
ATOM      4  H   UNL     1     -28.802 -12.743  17.935  0.00  0.00    +0.149 HD
ENDROOT
BRANCH   1   5
ATOM      5  C   UNL     1     -29.854 -14.184  15.898  0.00  0.00    +0.324 C 
BRANCH   5   6
ATOM      6  O   UNL     1     -30.188 -13.001  15.177  0.00  0.00    -0.479 OA
BRANCH   6  12
ATOM      7  C   UNL     1     -32.373 -12.081  14.737  0.00  0.00    +0.162 A 
ATOM      8  C   UNL     1     -33.496 -11.941  13.897  0.00  0.00    +0.049 A 
ATOM      9  C   UNL     1     -33.535 -12.583  12.658  0.00  0.00    +0.004 A 
ATOM     10  C   UNL     1     -32.461 -13.370  12.244  0.00  0.00    +0.004 A 
ATOM     11  C   UNL     1     -31.343 -13.519  13.067  0.00  0.00    +0.049 A 
ATOM     12  C   UNL     1     -31.291 -12.875  14.319  0.00  0.00    +0.163 A 
BRANCH   7  13
ATOM     13  O   UNL     1     -32.294 -11.452  15.988  0.00  0.00    -0.489 OA
BRANCH  13  15
ATOM     14  C   UNL     1     -30.659  -9.760  16.488  0.00  0.00    +0.048 C 
ATOM     15  C   UNL     1     -32.119 -10.051  16.179  0.00  0.00    +0.226 C 
ENDBRANCH  13  15
ENDBRANCH   7  13
ENDBRANCH   6  12
ENDBRANCH   5   6
ENDBRANCH   1   5
BRANCH   3  16
ATOM     16  C   UNL     1     -30.078 -13.149  19.659  0.00  0.00    +0.114 C 
BRANCH  16  17
ATOM     17  C   UNL     1     -30.936 -11.910  19.861  0.00  0.00    -0.027 A 
ATOM     18  C   UNL     1     -30.353 -10.669  20.183  0.00  0.00    +0.005 A 
ATOM     19  C   UNL     1     -31.154  -9.539  20.375  0.00  0.00    +0.000 A 
ATOM     20  C   UNL     1     -32.541  -9.634  20.247  0.00  0.00    +0.000 A 
ATOM     21  C   UNL     1     -33.132 -10.859  19.926  0.00  0.00    +0.000 A 
ATOM     22  C   UNL     1     -32.335 -11.992  19.734  0.00  0.00    +0.005 A 
ENDBRANCH  16  17
BRANCH  16  23
ATOM     23  C   UNL     1     -28.845 -13.148  20.582  0.00  0.00    +0.147 C 
BRANCH  23  24
ATOM     24  C   UNL     1     -27.570 -13.090  19.795  0.00  0.00    +0.307 C 
ATOM     25  O   UNL     1     -27.077 -11.976  19.472  0.00  0.00    -0.251 OA
BRANCH  24  26
ATOM     26  O   UNL     1     -26.913 -14.267  19.454  0.00  0.00    -0.481 OA
ATOM     27  H   UNL     1     -27.140 -14.761  18.599  0.00  0.00    +0.295 HD
ENDBRANCH  24  26
ENDBRANCH  23  24
ENDBRANCH  16  23
ENDBRANCH   3  16
TORSDOF 10
ENDMDL
MODEL 3
REMARK VINA RESULT:    -4.874      1.756      6.698
REMARK INTER + INTRA:          -9.467
REMARK INTER:                  -7.043
REMARK INTRA:                  -2.424
REMARK UNBOUND:                -1.886
REMARK  Name = 
REMARK  11 active torsions:
REMARK  status: ('A' for Active; 'I' for Inactive)
REMARK    1  A    between atoms: C_1  and  C_2
REMARK    2  A    between atoms: C_2  and  O_3
REMARK    3  A    between atoms: O_3  and  C_4
REMARK    4  A    between atoms: C_9  and  O_10
REMARK    5  A    between atoms: O_10  and  C_11
REMARK    6  A    between atoms: C_11  and  C_12
REMARK    7  A    between atoms: N_14  and  C_15
REMARK    8  A    between atoms: C_15  and  C_16
REMARK    9  A    between atoms: C_15  and  C_20
REMARK   10  A    between atoms: C_16  and  C_17
REMARK   11  A    between atoms: C_17  and  O_19
REMARK                            x       y       z     vdW  Elec       q    Type
REMARK                         _______ _______ _______ _____ _____    ______ ____
ROOT
ATOM      1  C   UNL     1     -31.484  -9.789  16.609  0.00  0.00    +0.251 C 
ATOM      2  O   UNL     1     -30.409  -9.429  16.056  0.00  0.00    -0.272 OA
ATOM      3  N   UNL     1     -31.556  -9.922  18.037  0.00  0.00    -0.305 N 
ATOM      4  H   UNL     1     -32.474 -10.186  18.461  0.00  0.00    +0.149 HD
ENDROOT
BRANCH   1   5
ATOM      5  C   UNL     1     -32.698 -10.028  15.767  0.00  0.00    +0.324 C 
BRANCH   5   6
ATOM      6  O   UNL     1     -32.896 -11.430  15.599  0.00  0.00    -0.479 OA
BRANCH   6  12
ATOM      7  C   UNL     1     -31.624 -12.831  14.105  0.00  0.00    +0.162 A 
ATOM      8  C   UNL     1     -31.495 -13.518  12.881  0.00  0.00    +0.049 A 
ATOM      9  C   UNL     1     -32.528 -13.483  11.942  0.00  0.00    +0.004 A 
ATOM     10  C   UNL     1     -33.694 -12.765  12.209  0.00  0.00    +0.004 A 
ATOM     11  C   UNL     1     -33.832 -12.079  13.418  0.00  0.00    +0.049 A 
ATOM     12  C   UNL     1     -32.798 -12.107  14.374  0.00  0.00    +0.163 A 
BRANCH   7  13
ATOM     13  O   UNL     1     -30.610 -12.841  15.075  0.00  0.00    -0.489 OA
BRANCH  13  15
ATOM     14  C   UNL     1     -30.944 -14.231  17.011  0.00  0.00    +0.048 C 
ATOM     15  C   UNL     1     -30.140 -14.011  15.740  0.00  0.00    +0.226 C 
ENDBRANCH  13  15
ENDBRANCH   7  13
ENDBRANCH   6  12
ENDBRANCH   5   6
ENDBRANCH   1   5
BRANCH   3  16
ATOM     16  C   UNL     1     -30.406  -9.651  18.908  0.00  0.00    +0.114 C 
BRANCH  16  17
ATOM     17  C   UNL     1     -29.665 -10.942  19.218  0.00  0.00    -0.027 A 
ATOM     18  C   UNL     1     -28.497 -11.296  18.514  0.00  0.00    +0.005 A 
ATOM     19  C   UNL     1     -27.830 -12.491  18.802  0.00  0.00    +0.000 A 
ATOM     20  C   UNL     1     -28.319 -13.344  19.794  0.00  0.00    +0.000 A 
ATOM     21  C   UNL     1     -29.476 -13.004  20.501  0.00  0.00    +0.000 A 
ATOM     22  C   UNL     1     -30.147 -11.810  20.215  0.00  0.00    +0.005 A 
ENDBRANCH  16  17
BRANCH  16  23
ATOM     23  C   UNL     1     -30.871  -8.937  20.191  0.00  0.00    +0.147 C 
BRANCH  23  24
ATOM     24  C   UNL     1     -31.255  -7.514  19.918  0.00  0.00    +0.307 C 
ATOM     25  O   UNL     1     -30.719  -6.579  20.571  0.00  0.00    -0.251 OA
BRANCH  24  26
ATOM     26  O   UNL     1     -32.176  -7.225  18.916  0.00  0.00    -0.481 OA
ATOM     27  H   UNL     1     -32.483  -6.274  18.752  0.00  0.00    +0.295 HD
ENDBRANCH  24  26
ENDBRANCH  23  24
ENDBRANCH  16  23
ENDBRANCH   3  16
TORSDOF 10
ENDMDL
MODEL 4
REMARK VINA RESULT:    -4.829      1.866      6.279
REMARK INTER + INTRA:          -9.397
REMARK INTER:                  -6.788
REMARK INTRA:                  -2.609
REMARK UNBOUND:                -1.886
REMARK  Name = 
REMARK  11 active torsions:
REMARK  status: ('A' for Active; 'I' for Inactive)
REMARK    1  A    between atoms: C_1  and  C_2
REMARK    2  A    between atoms: C_2  and  O_3
REMARK    3  A    between atoms: O_3  and  C_4
REMARK    4  A    between atoms: C_9  and  O_10
REMARK    5  A    between atoms: O_10  and  C_11
REMARK    6  A    between atoms: C_11  and  C_12
REMARK    7  A    between atoms: N_14  and  C_15
REMARK    8  A    between atoms: C_15  and  C_16
REMARK    9  A    between atoms: C_15  and  C_20
REMARK   10  A    between atoms: C_16  and  C_17
REMARK   11  A    between atoms: C_17  and  O_19
REMARK                            x       y       z     vdW  Elec       q    Type
REMARK                         _______ _______ _______ _____ _____    ______ ____
ROOT
ATOM      1  C   UNL     1     -31.443  -9.954  16.393  0.00  0.00    +0.251 C 
ATOM      2  O   UNL     1     -30.395  -9.557  15.813  0.00  0.00    -0.272 OA
ATOM      3  N   UNL     1     -31.515  -9.972  17.827  0.00  0.00    -0.305 N 
ATOM      4  H   UNL     1     -32.413 -10.272  18.271  0.00  0.00    +0.149 HD
ENDROOT
BRANCH   1   5
ATOM      5  C   UNL     1     -32.628 -10.357  15.573  0.00  0.00    +0.324 C 
BRANCH   5   6
ATOM      6  O   UNL     1     -32.838 -11.762  15.693  0.00  0.00    -0.479 OA
BRANCH   6  12
ATOM      7  C   UNL     1     -31.210 -13.057  14.473  0.00  0.00    +0.162 A 
ATOM      8  C   UNL     1     -30.182 -14.021  14.446  0.00  0.00    +0.049 A 
ATOM      9  C   UNL     1     -29.764 -14.638  15.627  0.00  0.00    +0.004 A 
ATOM     10  C   UNL     1     -30.363 -14.305  16.841  0.00  0.00    +0.004 A 
ATOM     11  C   UNL     1     -31.384 -13.352  16.880  0.00  0.00    +0.049 A 
ATOM     12  C   UNL     1     -31.814 -12.722  15.696  0.00  0.00    +0.163 A 
BRANCH   7  13
ATOM     13  O   UNL     1     -31.659 -12.413  13.310  0.00  0.00    -0.489 OA
BRANCH  13  15
ATOM     14  C   UNL     1     -33.721 -12.913  12.175  0.00  0.00    +0.048 C 
ATOM     15  C   UNL     1     -32.210 -13.080  12.177  0.00  0.00    +0.226 C 
ENDBRANCH  13  15
ENDBRANCH   7  13
ENDBRANCH   6  12
ENDBRANCH   5   6
ENDBRANCH   1   5
BRANCH   3  16
ATOM     16  C   UNL     1     -30.396  -9.541  18.674  0.00  0.00    +0.114 C 
BRANCH  16  17
ATOM     17  C   UNL     1     -29.533 -10.733  19.054  0.00  0.00    -0.027 A 
ATOM     18  C   UNL     1     -29.886 -11.571  20.130  0.00  0.00    +0.005 A 
ATOM     19  C   UNL     1     -29.078 -12.660  20.474  0.00  0.00    +0.000 A 
ATOM     20  C   UNL     1     -27.913 -12.924  19.750  0.00  0.00    +0.000 A 
ATOM     21  C   UNL     1     -27.553 -12.102  18.680  0.00  0.00    +0.000 A 
ATOM     22  C   UNL     1     -28.357 -11.011  18.332  0.00  0.00    +0.005 A 
ENDBRANCH  16  17
BRANCH  16  23
ATOM     23  C   UNL     1     -30.928  -8.802  19.916  0.00  0.00    +0.147 C 
BRANCH  23  24
ATOM     24  C   UNL     1     -32.239  -8.131  19.636  0.00  0.00    +0.307 C 
ATOM     25  O   UNL     1     -33.187  -8.226  20.461  0.00  0.00    -0.251 OA
BRANCH  24  26
ATOM     26  O   UNL     1     -32.395  -7.372  18.481  0.00  0.00    -0.481 OA
ATOM     27  H   UNL     1     -33.099  -6.645  18.427  0.00  0.00    +0.295 HD
ENDBRANCH  24  26
ENDBRANCH  23  24
ENDBRANCH  16  23
ENDBRANCH   3  16
TORSDOF 10
ENDMDL
MODEL 5
REMARK VINA RESULT:    -4.802      1.538      3.623
REMARK INTER + INTRA:          -9.355
REMARK INTER:                  -6.922
REMARK INTRA:                  -2.433
REMARK UNBOUND:                -1.886
REMARK  Name = 
REMARK  11 active torsions:
REMARK  status: ('A' for Active; 'I' for Inactive)
REMARK    1  A    between atoms: C_1  and  C_2
REMARK    2  A    between atoms: C_2  and  O_3
REMARK    3  A    between atoms: O_3  and  C_4
REMARK    4  A    between atoms: C_9  and  O_10
REMARK    5  A    between atoms: O_10  and  C_11
REMARK    6  A    between atoms: C_11  and  C_12
REMARK    7  A    between atoms: N_14  and  C_15
REMARK    8  A    between atoms: C_15  and  C_16
REMARK    9  A    between atoms: C_15  and  C_20
REMARK   10  A    between atoms: C_16  and  C_17
REMARK   11  A    between atoms: C_17  and  O_19
REMARK                            x       y       z     vdW  Elec       q    Type
REMARK                         _______ _______ _______ _____ _____    ______ ____
ROOT
ATOM      1  C   UNL     1     -33.048 -11.433  17.964  0.00  0.00    +0.251 C 
ATOM      2  O   UNL     1     -33.761 -10.397  18.069  0.00  0.00    -0.272 OA
ATOM      3  N   UNL     1     -32.377 -11.731  16.730  0.00  0.00    -0.305 N 
ATOM      4  H   UNL     1     -31.766 -12.577  16.693  0.00  0.00    +0.149 HD
ENDROOT
BRANCH   1   5
ATOM      5  C   UNL     1     -32.866 -12.321  19.155  0.00  0.00    +0.324 C 
BRANCH   5   6
ATOM      6  O   UNL     1     -31.834 -13.269  18.892  0.00  0.00    -0.479 OA
BRANCH   6  12
ATOM      7  C   UNL     1     -29.512 -13.092  18.267  0.00  0.00    +0.162 A 
ATOM      8  C   UNL     1     -28.156 -12.939  18.620  0.00  0.00    +0.049 A 
ATOM      9  C   UNL     1     -27.788 -12.805  19.961  0.00  0.00    +0.004 A 
ATOM     10  C   UNL     1     -28.761 -12.824  20.959  0.00  0.00    +0.004 A 
ATOM     11  C   UNL     1     -30.108 -12.976  20.621  0.00  0.00    +0.049 A 
ATOM     12  C   UNL     1     -30.492 -13.111  19.273  0.00  0.00    +0.163 A 
BRANCH   7  13
ATOM     13  O   UNL     1     -29.923 -13.228  16.932  0.00  0.00    -0.489 OA
BRANCH  13  15
ATOM     14  C   UNL     1     -29.032 -14.592  15.162  0.00  0.00    +0.048 C 
ATOM     15  C   UNL     1     -30.079 -14.474  16.258  0.00  0.00    +0.226 C 
ENDBRANCH  13  15
ENDBRANCH   7  13
ENDBRANCH   6  12
ENDBRANCH   5   6
ENDBRANCH   1   5
BRANCH   3  16
ATOM     16  C   UNL     1     -32.487 -10.864  15.550  0.00  0.00    +0.114 C 
BRANCH  16  17
ATOM     17  C   UNL     1     -32.814 -11.691  14.317  0.00  0.00    -0.027 A 
ATOM     18  C   UNL     1     -34.124 -11.738  13.801  0.00  0.00    +0.005 A 
ATOM     19  C   UNL     1     -34.413 -12.511  12.672  0.00  0.00    +0.000 A 
ATOM     20  C   UNL     1     -33.402 -13.242  12.046  0.00  0.00    +0.000 A 
ATOM     21  C   UNL     1     -32.098 -13.202  12.546  0.00  0.00    +0.000 A 
ATOM     22  C   UNL     1     -31.804 -12.432  13.676  0.00  0.00    +0.005 A 
ENDBRANCH  16  17
BRANCH  16  23
ATOM     23  C   UNL     1     -31.189 -10.054  15.368  0.00  0.00    +0.147 C 
BRANCH  23  24
ATOM     24  C   UNL     1     -30.652  -9.575  16.682  0.00  0.00    +0.307 C 
ATOM     25  O   UNL     1     -29.471  -9.854  17.022  0.00  0.00    -0.251 OA
BRANCH  24  26
ATOM     26  O   UNL     1     -31.448  -8.790  17.510  0.00  0.00    -0.481 OA
ATOM     27  H   UNL     1     -31.244  -8.705  18.499  0.00  0.00    +0.295 HD
ENDBRANCH  24  26
ENDBRANCH  23  24
ENDBRANCH  16  23
ENDBRANCH   3  16
TORSDOF 10
ENDMDL
MODEL 6
REMARK VINA RESULT:    -4.732      2.454      4.483
REMARK INTER + INTRA:          -9.246
REMARK INTER:                  -6.684
REMARK INTRA:                  -2.562
REMARK UNBOUND:                -1.886
REMARK  Name = 
REMARK  11 active torsions:
REMARK  status: ('A' for Active; 'I' for Inactive)
REMARK    1  A    between atoms: C_1  and  C_2
REMARK    2  A    between atoms: C_2  and  O_3
REMARK    3  A    between atoms: O_3  and  C_4
REMARK    4  A    between atoms: C_9  and  O_10
REMARK    5  A    between atoms: O_10  and  C_11
REMARK    6  A    between atoms: C_11  and  C_12
REMARK    7  A    between atoms: N_14  and  C_15
REMARK    8  A    between atoms: C_15  and  C_16
REMARK    9  A    between atoms: C_15  and  C_20
REMARK   10  A    between atoms: C_16  and  C_17
REMARK   11  A    between atoms: C_17  and  O_19
REMARK                            x       y       z     vdW  Elec       q    Type
REMARK                         _______ _______ _______ _____ _____    ______ ____
ROOT
ATOM      1  C   UNL     1     -29.687 -10.102  19.119  0.00  0.00    +0.251 C 
ATOM      2  O   UNL     1     -28.761  -9.882  18.291  0.00  0.00    -0.272 OA
ATOM      3  N   UNL     1     -29.878 -11.418  19.662  0.00  0.00    -0.305 N 
ATOM      4  H   UNL     1     -30.632 -11.552  20.372  0.00  0.00    +0.149 HD
ENDROOT
BRANCH   1   5
ATOM      5  C   UNL     1     -30.553  -8.967  19.569  0.00  0.00    +0.324 C 
BRANCH   5   6
ATOM      6  O   UNL     1     -31.505  -8.660  18.553  0.00  0.00    -0.479 OA
BRANCH   6  12
ATOM      7  C   UNL     1     -33.100 -10.391  18.031  0.00  0.00    +0.162 A 
ATOM      8  C   UNL     1     -33.633 -11.335  17.130  0.00  0.00    +0.049 A 
ATOM      9  C   UNL     1     -33.090 -11.472  15.850  0.00  0.00    +0.004 A 
ATOM     10  C   UNL     1     -32.016 -10.675  15.457  0.00  0.00    +0.004 A 
ATOM     11  C   UNL     1     -31.479  -9.736  16.341  0.00  0.00    +0.049 A 
ATOM     12  C   UNL     1     -32.017  -9.588  17.634  0.00  0.00    +0.163 A 
BRANCH   7  13
ATOM     13  O   UNL     1     -33.617 -10.221  19.324  0.00  0.00    -0.489 OA
BRANCH  13  15
ATOM     14  C   UNL     1     -33.766 -10.442  21.716  0.00  0.00    +0.048 C 
ATOM     15  C   UNL     1     -33.397 -11.122  20.407  0.00  0.00    +0.226 C 
ENDBRANCH  13  15
ENDBRANCH   7  13
ENDBRANCH   6  12
ENDBRANCH   5   6
ENDBRANCH   1   5
BRANCH   3  16
ATOM     16  C   UNL     1     -29.023 -12.551  19.287  0.00  0.00    +0.114 C 
BRANCH  16  17
ATOM     17  C   UNL     1     -29.620 -13.292  18.101  0.00  0.00    -0.027 A 
ATOM     18  C   UNL     1     -28.920 -13.395  16.883  0.00  0.00    +0.005 A 
ATOM     19  C   UNL     1     -29.485 -14.071  15.797  0.00  0.00    +0.000 A 
ATOM     20  C   UNL     1     -30.750 -14.651  15.914  0.00  0.00    +0.000 A 
ATOM     21  C   UNL     1     -31.454 -14.558  17.117  0.00  0.00    +0.000 A 
ATOM     22  C   UNL     1     -30.894 -13.881  18.206  0.00  0.00    +0.005 A 
ENDBRANCH  16  17
BRANCH  16  23
ATOM     23  C   UNL     1     -28.819 -13.481  20.498  0.00  0.00    +0.147 C 
BRANCH  23  24
ATOM     24  C   UNL     1     -27.375 -13.843  20.675  0.00  0.00    +0.307 C 
ATOM     25  O   UNL     1     -26.807 -13.654  21.784  0.00  0.00    -0.251 OA
BRANCH  24  26
ATOM     26  O   UNL     1     -26.673 -14.424  19.623  0.00  0.00    -0.481 OA
ATOM     27  H   UNL     1     -26.711 -14.028  18.692  0.00  0.00    +0.295 HD
ENDBRANCH  24  26
ENDBRANCH  23  24
ENDBRANCH  16  23
ENDBRANCH   3  16
TORSDOF 10
ENDMDL
MODEL 7
REMARK VINA RESULT:    -4.727      1.773      6.634
REMARK INTER + INTRA:          -9.239
REMARK INTER:                  -7.612
REMARK INTRA:                  -1.627
REMARK UNBOUND:                -1.886
REMARK  Name = 
REMARK  11 active torsions:
REMARK  status: ('A' for Active; 'I' for Inactive)
REMARK    1  A    between atoms: C_1  and  C_2
REMARK    2  A    between atoms: C_2  and  O_3
REMARK    3  A    between atoms: O_3  and  C_4
REMARK    4  A    between atoms: C_9  and  O_10
REMARK    5  A    between atoms: O_10  and  C_11
REMARK    6  A    between atoms: C_11  and  C_12
REMARK    7  A    between atoms: N_14  and  C_15
REMARK    8  A    between atoms: C_15  and  C_16
REMARK    9  A    between atoms: C_15  and  C_20
REMARK   10  A    between atoms: C_16  and  C_17
REMARK   11  A    between atoms: C_17  and  O_19
REMARK                            x       y       z     vdW  Elec       q    Type
REMARK                         _______ _______ _______ _____ _____    ______ ____
ROOT
ATOM      1  C   UNL     1     -29.614 -10.421  18.363  0.00  0.00    +0.251 C 
ATOM      2  O   UNL     1     -29.662  -9.346  19.021  0.00  0.00    -0.272 OA
ATOM      3  N   UNL     1     -29.292 -11.658  19.018  0.00  0.00    -0.305 N 
ATOM      4  H   UNL     1     -29.299 -12.533  18.448  0.00  0.00    +0.149 HD
ENDROOT
BRANCH   1   5
ATOM      5  C   UNL     1     -29.947 -10.405  16.904  0.00  0.00    +0.324 C 
BRANCH   5   6
ATOM      6  O   UNL     1     -30.889 -11.435  16.616  0.00  0.00    -0.479 OA
BRANCH   6  12
ATOM      7  C   UNL     1     -31.186 -12.687  14.577  0.00  0.00    +0.162 A 
ATOM      8  C   UNL     1     -30.926 -13.827  13.790  0.00  0.00    +0.049 A 
ATOM      9  C   UNL     1     -30.098 -14.843  14.273  0.00  0.00    +0.004 A 
ATOM     10  C   UNL     1     -29.524 -14.735  15.540  0.00  0.00    +0.004 A 
ATOM     11  C   UNL     1     -29.776 -13.611  16.330  0.00  0.00    +0.049 A 
ATOM     12  C   UNL     1     -30.609 -12.579  15.854  0.00  0.00    +0.163 A 
BRANCH   7  13
ATOM     13  O   UNL     1     -32.011 -11.645  14.129  0.00  0.00    -0.489 OA
BRANCH  13  15
ATOM     14  C   UNL     1     -33.959 -12.043  12.772  0.00  0.00    +0.048 C 
ATOM     15  C   UNL     1     -33.436 -11.674  14.152  0.00  0.00    +0.226 C 
ENDBRANCH  13  15
ENDBRANCH   7  13
ENDBRANCH   6  12
ENDBRANCH   5   6
ENDBRANCH   1   5
BRANCH   3  16
ATOM     16  C   UNL     1     -29.006 -11.732  20.456  0.00  0.00    +0.114 C 
BRANCH  16  17
ATOM     17  C   UNL     1     -27.877 -12.715  20.719  0.00  0.00    -0.027 A 
ATOM     18  C   UNL     1     -26.752 -12.771  19.873  0.00  0.00    +0.005 A 
ATOM     19  C   UNL     1     -25.725 -13.687  20.120  0.00  0.00    +0.000 A 
ATOM     20  C   UNL     1     -25.807 -14.555  21.212  0.00  0.00    +0.000 A 
ATOM     21  C   UNL     1     -26.917 -14.508  22.059  0.00  0.00    +0.000 A 
ATOM     22  C   UNL     1     -27.947 -13.594  21.815  0.00  0.00    +0.005 A 
ENDBRANCH  16  17
BRANCH  16  23
ATOM     23  C   UNL     1     -30.283 -12.107  21.230  0.00  0.00    +0.147 C 
BRANCH  23  24
ATOM     24  C   UNL     1     -31.278 -12.796  20.346  0.00  0.00    +0.307 C 
ATOM     25  O   UNL     1     -32.411 -12.281  20.147  0.00  0.00    -0.251 OA
BRANCH  24  26
ATOM     26  O   UNL     1     -30.935 -13.988  19.714  0.00  0.00    -0.481 OA
ATOM     27  H   UNL     1     -29.967 -14.213  19.520  0.00  0.00    +0.295 HD
ENDBRANCH  24  26
ENDBRANCH  23  24
ENDBRANCH  16  23
ENDBRANCH   3  16
TORSDOF 10
ENDMDL
MODEL 8
REMARK VINA RESULT:    -4.697      1.810      6.643
REMARK INTER + INTRA:          -9.192
REMARK INTER:                  -7.196
REMARK INTRA:                  -1.995
REMARK UNBOUND:                -1.886
REMARK  Name = 
REMARK  11 active torsions:
REMARK  status: ('A' for Active; 'I' for Inactive)
REMARK    1  A    between atoms: C_1  and  C_2
REMARK    2  A    between atoms: C_2  and  O_3
REMARK    3  A    between atoms: O_3  and  C_4
REMARK    4  A    between atoms: C_9  and  O_10
REMARK    5  A    between atoms: O_10  and  C_11
REMARK    6  A    between atoms: C_11  and  C_12
REMARK    7  A    between atoms: N_14  and  C_15
REMARK    8  A    between atoms: C_15  and  C_16
REMARK    9  A    between atoms: C_15  and  C_20
REMARK   10  A    between atoms: C_16  and  C_17
REMARK   11  A    between atoms: C_17  and  O_19
REMARK                            x       y       z     vdW  Elec       q    Type
REMARK                         _______ _______ _______ _____ _____    ______ ____
ROOT
ATOM      1  C   UNL     1     -29.705 -10.216  18.537  0.00  0.00    +0.251 C 
ATOM      2  O   UNL     1     -30.068  -9.375  19.405  0.00  0.00    -0.272 OA
ATOM      3  N   UNL     1     -29.342 -11.550  18.926  0.00  0.00    -0.305 N 
ATOM      4  H   UNL     1     -29.083 -12.228  18.175  0.00  0.00    +0.149 HD
ENDROOT
BRANCH   1   5
ATOM      5  C   UNL     1     -29.707  -9.826  17.092  0.00  0.00    +0.324 C 
BRANCH   5   6
ATOM      6  O   UNL     1     -30.216 -10.901  16.307  0.00  0.00    -0.479 OA
BRANCH   6  12
ATOM      7  C   UNL     1     -31.732 -11.917  14.730  0.00  0.00    +0.162 A 
ATOM      8  C   UNL     1     -32.966 -11.928  14.049  0.00  0.00    +0.049 A 
ATOM      9  C   UNL     1     -33.909 -10.925  14.284  0.00  0.00    +0.004 A 
ATOM     10  C   UNL     1     -33.634  -9.904  15.194  0.00  0.00    +0.004 A 
ATOM     11  C   UNL     1     -32.414  -9.882  15.874  0.00  0.00    +0.049 A 
ATOM     12  C   UNL     1     -31.455 -10.888  15.646  0.00  0.00    +0.163 A 
BRANCH   7  13
ATOM     13  O   UNL     1     -30.758 -12.906  14.524  0.00  0.00    -0.489 OA
BRANCH  13  15
ATOM     14  C   UNL     1     -29.430 -14.580  15.631  0.00  0.00    +0.048 C 
ATOM     15  C   UNL     1     -30.803 -14.214  15.088  0.00  0.00    +0.226 C 
ENDBRANCH  13  15
ENDBRANCH   7  13
ENDBRANCH   6  12
ENDBRANCH   5   6
ENDBRANCH   1   5
BRANCH   3  16
ATOM     16  C   UNL     1     -29.371 -11.993  20.326  0.00  0.00    +0.114 C 
BRANCH  16  17
ATOM     17  C   UNL     1     -28.149 -12.843  20.635  0.00  0.00    -0.027 A 
ATOM     18  C   UNL     1     -28.126 -13.703  21.750  0.00  0.00    +0.005 A 
ATOM     19  C   UNL     1     -26.992 -14.472  22.028  0.00  0.00    +0.000 A 
ATOM     20  C   UNL     1     -25.872 -14.394  21.198  0.00  0.00    +0.000 A 
ATOM     21  C   UNL     1     -25.882 -13.546  20.087  0.00  0.00    +0.000 A 
ATOM     22  C   UNL     1     -27.014 -12.773  19.806  0.00  0.00    +0.005 A 
ENDBRANCH  16  17
BRANCH  16  23
ATOM     23  C   UNL     1     -30.681 -12.750  20.613  0.00  0.00    +0.147 C 
BRANCH  23  24
ATOM     24  C   UNL     1     -31.322 -13.237  19.348  0.00  0.00    +0.307 C 
ATOM     25  O   UNL     1     -32.110 -12.489  18.710  0.00  0.00    -0.251 OA
BRANCH  24  26
ATOM     26  O   UNL     1     -31.015 -14.503  18.860  0.00  0.00    -0.481 OA
ATOM     27  H   UNL     1     -31.409 -15.333  19.284  0.00  0.00    +0.295 HD
ENDBRANCH  24  26
ENDBRANCH  23  24
ENDBRANCH  16  23
ENDBRANCH   3  16
TORSDOF 10
ENDMDL
MODEL 9
REMARK VINA RESULT:    -4.547      1.676      3.826
REMARK INTER + INTRA:          -8.959
REMARK INTER:                  -7.569
REMARK INTRA:                  -1.389
REMARK UNBOUND:                -1.886
REMARK  Name = 
REMARK  11 active torsions:
REMARK  status: ('A' for Active; 'I' for Inactive)
REMARK    1  A    between atoms: C_1  and  C_2
REMARK    2  A    between atoms: C_2  and  O_3
REMARK    3  A    between atoms: O_3  and  C_4
REMARK    4  A    between atoms: C_9  and  O_10
REMARK    5  A    between atoms: O_10  and  C_11
REMARK    6  A    between atoms: C_11  and  C_12
REMARK    7  A    between atoms: N_14  and  C_15
REMARK    8  A    between atoms: C_15  and  C_16
REMARK    9  A    between atoms: C_15  and  C_20
REMARK   10  A    between atoms: C_16  and  C_17
REMARK   11  A    between atoms: C_17  and  O_19
REMARK                            x       y       z     vdW  Elec       q    Type
REMARK                         _______ _______ _______ _____ _____    ______ ____
ROOT
ATOM      1  C   UNL     1     -31.549 -13.377  17.198  0.00  0.00    +0.251 C 
ATOM      2  O   UNL     1     -32.754 -13.693  17.394  0.00  0.00    -0.272 OA
ATOM      3  N   UNL     1     -31.219 -12.242  16.384  0.00  0.00    -0.305 N 
ATOM      4  H   UNL     1     -30.211 -11.990  16.275  0.00  0.00    +0.149 HD
ENDROOT
BRANCH   1   5
ATOM      5  C   UNL     1     -30.466 -14.167  17.866  0.00  0.00    +0.324 C 
BRANCH   5   6
ATOM      6  O   UNL     1     -30.662 -14.150  19.277  0.00  0.00    -0.479 OA
BRANCH   6  12
ATOM      7  C   UNL     1     -29.283 -12.820  20.742  0.00  0.00    +0.162 A 
ATOM      8  C   UNL     1     -29.105 -11.691  21.566  0.00  0.00    +0.049 A 
ATOM      9  C   UNL     1     -30.140 -10.769  21.732  0.00  0.00    +0.004 A 
ATOM     10  C   UNL     1     -31.360 -10.961  21.083  0.00  0.00    +0.004 A 
ATOM     11  C   UNL     1     -31.549 -12.078  20.264  0.00  0.00    +0.049 A 
ATOM     12  C   UNL     1     -30.512 -13.014  20.089  0.00  0.00    +0.163 A 
BRANCH   7  13
ATOM     13  O   UNL     1     -28.268 -13.769  20.548  0.00  0.00    -0.489 OA
BRANCH  13  15
ATOM     14  C   UNL     1     -26.105 -14.648  21.128  0.00  0.00    +0.048 C 
ATOM     15  C   UNL     1     -27.527 -14.386  21.597  0.00  0.00    +0.226 C 
ENDBRANCH  13  15
ENDBRANCH   7  13
ENDBRANCH   6  12
ENDBRANCH   5   6
ENDBRANCH   1   5
BRANCH   3  16
ATOM     16  C   UNL     1     -32.247 -11.408  15.748  0.00  0.00    +0.114 C 
BRANCH  16  17
ATOM     17  C   UNL     1     -32.655 -12.005  14.410  0.00  0.00    -0.027 A 
ATOM     18  C   UNL     1     -33.937 -11.774  13.873  0.00  0.00    +0.005 A 
ATOM     19  C   UNL     1     -34.303 -12.336  12.646  0.00  0.00    +0.000 A 
ATOM     20  C   UNL     1     -33.396 -13.131  11.942  0.00  0.00    +0.000 A 
ATOM     21  C   UNL     1     -32.121 -13.366  12.462  0.00  0.00    +0.000 A 
ATOM     22  C   UNL     1     -31.751 -12.807  13.690  0.00  0.00    +0.005 A 
ENDBRANCH  16  17
BRANCH  16  23
ATOM     23  C   UNL     1     -31.737  -9.963  15.598  0.00  0.00    +0.147 C 
BRANCH  23  24
ATOM     24  C   UNL     1     -30.974  -9.522  16.811  0.00  0.00    +0.307 C 
ATOM     25  O   UNL     1     -29.804  -9.946  17.011  0.00  0.00    -0.251 OA
BRANCH  24  26
ATOM     26  O   UNL     1     -31.547  -8.613  17.695  0.00  0.00    -0.481 OA
ATOM     27  H   UNL     1     -31.029  -7.804  18.017  0.00  0.00    +0.295 HD
ENDBRANCH  24  26
ENDBRANCH  23  24
ENDBRANCH  16  23
ENDBRANCH   3  16
TORSDOF 10
ENDMDL
