MODEL 1
REMARK VINA RESULT:    -4.814      0.000      0.000
REMARK INTER + INTRA:          -9.299
REMARK INTER:                  -6.924
REMARK INTRA:                  -2.375
REMARK UNBOUND:                -2.375
REMARK  Name = 
REMARK  10 active torsions:
REMARK  status: ('A' for Active; 'I' for Inactive)
REMARK    1  A    between atoms: C_1  and  C_2
REMARK    2  A    between atoms: C_2  and  C_4
REMARK    3  A    between atoms: C_7  and  S_10
REMARK    4  A    between atoms: S_10  and  N_13
REMARK    5  A    between atoms: N_13  and  C_14
REMARK    6  A    between atoms: C_14  and  C_15
REMARK    7  A    between atoms: C_14  and  C_19
REMARK    8  A    between atoms: C_15  and  C_16
REMARK    9  A    between atoms: C_16  and  O_18
REMARK   10  A    between atoms: C_22  and  C_23
REMARK                            x       y       z     vdW  Elec       q    Type
REMARK                         _______ _______ _______ _____ _____    ______ ____
ROOT
ATOM      1  N   UNL     1     -30.592 -11.398  20.171  0.00  0.00    -0.182 NA
ATOM      2  H   UNL     1     -30.594 -11.067  21.164  0.00  0.00    +0.149 HD
ENDROOT
BRANCH   1   3
ATOM      3  S   UNL     1     -30.454 -10.001  19.141  0.00  0.00    +0.059 S 
ATOM      4  O   UNL     1     -30.890  -8.775  19.894  0.00  0.00    -0.153 OA
ATOM      5  O   UNL     1     -29.017  -9.825  18.739  0.00  0.00    -0.153 OA
BRANCH   3   9
ATOM      6  C   UNL     1     -32.983 -10.595  15.366  0.00  0.00    +0.017 A 
ATOM      7  C   UNL     1     -33.573 -10.673  16.643  0.00  0.00    +0.013 A 
ATOM      8  C   UNL     1     -32.805 -10.475  17.794  0.00  0.00    +0.029 A 
ATOM      9  C   UNL     1     -31.437 -10.195  17.691  0.00  0.00    +0.105 A 
ATOM     10  C   UNL     1     -30.842 -10.118  16.427  0.00  0.00    +0.029 A 
ATOM     11  C   UNL     1     -31.607 -10.315  15.275  0.00  0.00    +0.013 A 
BRANCH   6  13
ATOM     12  C   UNL     1     -33.753 -12.106  13.378  0.00  0.00    +0.091 C 
ATOM     13  C   UNL     1     -33.784 -10.808  14.130  0.00  0.00    +0.160 C 
ATOM     14  O   UNL     1     -34.515  -9.879  13.690  0.00  0.00    -0.292 OA
ENDBRANCH   6  13
ENDBRANCH   3   9
ENDBRANCH   1   3
BRANCH   1  15
ATOM     15  C   UNL     1     -29.504 -12.368  19.935  0.00  0.00    +0.117 C 
BRANCH  15  16
ATOM     16  C   UNL     1     -29.745 -13.064  18.611  0.00  0.00    -0.028 A 
ATOM     17  C   UNL     1     -30.974 -13.698  18.356  0.00  0.00    +0.005 A 
ATOM     18  C   UNL     1     -31.209 -14.319  17.126  0.00  0.00    +0.003 A 
ATOM     19  C   UNL     1     -30.218 -14.324  16.134  0.00  0.00    -0.050 A 
ATOM     20  C   UNL     1     -30.488 -14.954  14.800  0.00  0.00    +0.044 C 
ATOM     21  C   UNL     1     -29.001 -13.671  16.373  0.00  0.00    +0.003 A 
ATOM     22  C   UNL     1     -28.764 -13.049  17.603  0.00  0.00    +0.005 A 
ENDBRANCH  15  16
BRANCH  15  23
ATOM     23  C   UNL     1     -29.404 -13.401  21.082  0.00  0.00    +0.145 C 
BRANCH  23  24
ATOM     24  C   UNL     1     -27.998 -13.892  21.255  0.00  0.00    +0.307 C 
ATOM     25  O   UNL     1     -27.177 -13.224  21.938  0.00  0.00    -0.251 OA
BRANCH  24  26
ATOM     26  O   UNL     1     -27.590 -15.062  20.623  0.00  0.00    -0.481 OA
ATOM     27  H   UNL     1     -26.613 -15.223  20.407  0.00  0.00    +0.295 HD
ENDBRANCH  24  26
ENDBRANCH  23  24
ENDBRANCH  15  23
ENDBRANCH   1  15
TORSDOF 8
ENDMDL
MODEL 2
REMARK VINA RESULT:    -4.747      2.211      3.729
REMARK INTER + INTRA:          -9.203
REMARK INTER:                  -7.004
REMARK INTRA:                  -2.199
REMARK UNBOUND:                -2.375
REMARK  Name = 
REMARK  10 active torsions:
REMARK  status: ('A' for Active; 'I' for Inactive)
REMARK    1  A    between atoms: C_1  and  C_2
REMARK    2  A    between atoms: C_2  and  C_4
REMARK    3  A    between atoms: C_7  and  S_10
REMARK    4  A    between atoms: S_10  and  N_13
REMARK    5  A    between atoms: N_13  and  C_14
REMARK    6  A    between atoms: C_14  and  C_15
REMARK    7  A    between atoms: C_14  and  C_19
REMARK    8  A    between atoms: C_15  and  C_16
REMARK    9  A    between atoms: C_16  and  O_18
REMARK   10  A    between atoms: C_22  and  C_23
REMARK                            x       y       z     vdW  Elec       q    Type
REMARK                         _______ _______ _______ _____ _____    ______ ____
ROOT
ATOM      1  N   UNL     1     -28.147 -11.400  20.058  0.00  0.00    -0.182 NA
ATOM      2  H   UNL     1     -27.203 -11.461  20.504  0.00  0.00    +0.149 HD
ENDROOT
BRANCH   1   3
ATOM      3  S   UNL     1     -27.934 -11.531  18.335  0.00  0.00    +0.059 S 
ATOM      4  O   UNL     1     -26.836 -10.605  17.892  0.00  0.00    -0.153 OA
ATOM      5  O   UNL     1     -27.533 -12.939  17.994  0.00  0.00    -0.153 OA
BRANCH   3   9
ATOM      6  C   UNL     1     -31.870 -10.546  16.206  0.00  0.00    +0.017 A 
ATOM      7  C   UNL     1     -31.205  -9.567  16.972  0.00  0.00    +0.013 A 
ATOM      8  C   UNL     1     -29.996  -9.863  17.607  0.00  0.00    +0.029 A 
ATOM      9  C   UNL     1     -29.429 -11.138  17.489  0.00  0.00    +0.105 A 
ATOM     10  C   UNL     1     -30.083 -12.116  16.732  0.00  0.00    +0.029 A 
ATOM     11  C   UNL     1     -31.291 -11.824  16.095  0.00  0.00    +0.013 A 
BRANCH   6  13
ATOM     12  C   UNL     1     -33.988 -11.329  14.892  0.00  0.00    +0.091 C 
ATOM     13  C   UNL     1     -33.160 -10.251  15.527  0.00  0.00    +0.160 C 
ATOM     14  O   UNL     1     -33.583  -9.064  15.475  0.00  0.00    -0.292 OA
ENDBRANCH   6  13
ENDBRANCH   3   9
ENDBRANCH   1   3
BRANCH   1  15
ATOM     15  C   UNL     1     -29.053 -12.441  20.583  0.00  0.00    +0.117 C 
BRANCH  15  16
ATOM     16  C   UNL     1     -30.407 -11.820  20.859  0.00  0.00    -0.028 A 
ATOM     17  C   UNL     1     -30.516 -10.703  21.706  0.00  0.00    +0.005 A 
ATOM     18  C   UNL     1     -31.760 -10.111  21.942  0.00  0.00    +0.003 A 
ATOM     19  C   UNL     1     -32.917 -10.631  21.344  0.00  0.00    -0.050 A 
ATOM     20  C   UNL     1     -34.245  -9.970  21.566  0.00  0.00    +0.044 C 
ATOM     21  C   UNL     1     -32.810 -11.729  20.478  0.00  0.00    +0.003 A 
ATOM     22  C   UNL     1     -31.567 -12.322  20.240  0.00  0.00    +0.005 A 
ENDBRANCH  15  16
BRANCH  15  23
ATOM     23  C   UNL     1     -28.485 -13.097  21.864  0.00  0.00    +0.145 C 
BRANCH  23  24
ATOM     24  C   UNL     1     -27.340 -14.011  21.549  0.00  0.00    +0.307 C 
ATOM     25  O   UNL     1     -26.208 -13.804  22.062  0.00  0.00    -0.251 OA
BRANCH  24  26
ATOM     26  O   UNL     1     -27.518 -15.062  20.655  0.00  0.00    -0.481 OA
ATOM     27  H   UNL     1     -26.753 -15.385  20.074  0.00  0.00    +0.295 HD
ENDBRANCH  24  26
ENDBRANCH  23  24
ENDBRANCH  15  23
ENDBRANCH   1  15
TORSDOF 8
ENDMDL
MODEL 3
REMARK VINA RESULT:    -4.687      2.028      6.112
REMARK INTER + INTRA:          -9.116
REMARK INTER:                  -6.813
REMARK INTRA:                  -2.304
REMARK UNBOUND:                -2.375
REMARK  Name = 
REMARK  10 active torsions:
REMARK  status: ('A' for Active; 'I' for Inactive)
REMARK    1  A    between atoms: C_1  and  C_2
REMARK    2  A    between atoms: C_2  and  C_4
REMARK    3  A    between atoms: C_7  and  S_10
REMARK    4  A    between atoms: S_10  and  N_13
REMARK    5  A    between atoms: N_13  and  C_14
REMARK    6  A    between atoms: C_14  and  C_15
REMARK    7  A    between atoms: C_14  and  C_19
REMARK    8  A    between atoms: C_15  and  C_16
REMARK    9  A    between atoms: C_16  and  O_18
REMARK   10  A    between atoms: C_22  and  C_23
REMARK                            x       y       z     vdW  Elec       q    Type
REMARK                         _______ _______ _______ _____ _____    ______ ____
ROOT
ATOM      1  N   UNL     1     -31.773 -10.836  16.729  0.00  0.00    -0.182 NA
ATOM      2  H   UNL     1     -32.525 -10.190  16.394  0.00  0.00    +0.149 HD
ENDROOT
BRANCH   1   3
ATOM      3  S   UNL     1     -31.346 -10.366  18.350  0.00  0.00    +0.059 S 
ATOM      4  O   UNL     1     -31.075  -8.888  18.391  0.00  0.00    -0.153 OA
ATOM      5  O   UNL     1     -32.499 -10.661  19.268  0.00  0.00    -0.153 OA
BRANCH   3   9
ATOM      6  C   UNL     1     -27.681 -12.741  19.737  0.00  0.00    +0.017 A 
ATOM      7  C   UNL     1     -27.565 -11.774  18.718  0.00  0.00    +0.013 A 
ATOM      8  C   UNL     1     -28.679 -11.038  18.308  0.00  0.00    +0.029 A 
ATOM      9  C   UNL     1     -29.928 -11.252  18.905  0.00  0.00    +0.105 A 
ATOM     10  C   UNL     1     -30.053 -12.211  19.915  0.00  0.00    +0.029 A 
ATOM     11  C   UNL     1     -28.941 -12.949  20.329  0.00  0.00    +0.013 A 
BRANCH   6  13
ATOM     12  C   UNL     1     -26.651 -14.721  21.095  0.00  0.00    +0.091 C 
ATOM     13  C   UNL     1     -26.508 -13.538  20.183  0.00  0.00    +0.160 C 
ATOM     14  O   UNL     1     -25.351 -13.222  19.793  0.00  0.00    -0.292 OA
ENDBRANCH   6  13
ENDBRANCH   3   9
ENDBRANCH   1   3
BRANCH   1  15
ATOM     15  C   UNL     1     -32.210 -12.244  16.659  0.00  0.00    +0.117 C 
BRANCH  15  16
ATOM     16  C   UNL     1     -31.285 -13.001  15.729  0.00  0.00    -0.028 A 
ATOM     17  C   UNL     1     -31.434 -12.891  14.335  0.00  0.00    +0.005 A 
ATOM     18  C   UNL     1     -30.566 -13.567  13.473  0.00  0.00    +0.003 A 
ATOM     19  C   UNL     1     -29.540 -14.371  13.989  0.00  0.00    -0.050 A 
ATOM     20  C   UNL     1     -28.583 -15.062  13.063  0.00  0.00    +0.044 C 
ATOM     21  C   UNL     1     -29.370 -14.464  15.378  0.00  0.00    +0.003 A 
ATOM     22  C   UNL     1     -30.237 -13.788  16.241  0.00  0.00    +0.005 A 
ENDBRANCH  15  16
BRANCH  15  23
ATOM     23  C   UNL     1     -33.676 -12.362  16.181  0.00  0.00    +0.145 C 
BRANCH  23  24
ATOM     24  C   UNL     1     -34.400 -11.056  16.306  0.00  0.00    +0.307 C 
ATOM     25  O   UNL     1     -34.798 -10.453  15.273  0.00  0.00    -0.251 OA
BRANCH  24  26
ATOM     26  O   UNL     1     -34.593 -10.488  17.561  0.00  0.00    -0.481 OA
ATOM     27  H   UNL     1     -34.098 -10.840  18.372  0.00  0.00    +0.295 HD
ENDBRANCH  24  26
ENDBRANCH  23  24
ENDBRANCH  15  23
ENDBRANCH   1  15
TORSDOF 8
ENDMDL
MODEL 4
REMARK VINA RESULT:    -4.651      2.090      6.330
REMARK INTER + INTRA:          -9.065
REMARK INTER:                  -6.435
REMARK INTRA:                  -2.631
REMARK UNBOUND:                -2.375
REMARK  Name = 
REMARK  10 active torsions:
REMARK  status: ('A' for Active; 'I' for Inactive)
REMARK    1  A    between atoms: C_1  and  C_2
REMARK    2  A    between atoms: C_2  and  C_4
REMARK    3  A    between atoms: C_7  and  S_10
REMARK    4  A    between atoms: S_10  and  N_13
REMARK    5  A    between atoms: N_13  and  C_14
REMARK    6  A    between atoms: C_14  and  C_15
REMARK    7  A    between atoms: C_14  and  C_19
REMARK    8  A    between atoms: C_15  and  C_16
REMARK    9  A    between atoms: C_16  and  O_18
REMARK   10  A    between atoms: C_22  and  C_23
REMARK                            x       y       z     vdW  Elec       q    Type
REMARK                         _______ _______ _______ _____ _____    ______ ____
ROOT
ATOM      1  N   UNL     1     -32.303  -8.779  17.069  0.00  0.00    -0.182 NA
ATOM      2  H   UNL     1     -32.634  -7.818  16.823  0.00  0.00    +0.149 HD
ENDROOT
BRANCH   1   3
ATOM      3  S   UNL     1     -31.943  -8.803  18.772  0.00  0.00    +0.059 S 
ATOM      4  O   UNL     1     -31.492  -7.437  19.210  0.00  0.00    -0.153 OA
ATOM      5  O   UNL     1     -33.189  -9.156  19.534  0.00  0.00    -0.153 OA
BRANCH   3   9
ATOM      6  C   UNL     1     -28.742 -11.959  19.660  0.00  0.00    +0.017 A 
ATOM      7  C   UNL     1     -28.609 -11.094  18.555  0.00  0.00    +0.013 A 
ATOM      8  C   UNL     1     -29.576 -10.120  18.295  0.00  0.00    +0.029 A 
ATOM      9  C   UNL     1     -30.692  -9.992  19.130  0.00  0.00    +0.105 A 
ATOM     10  C   UNL     1     -30.835 -10.847  20.228  0.00  0.00    +0.029 A 
ATOM     11  C   UNL     1     -29.869 -11.821  20.492  0.00  0.00    +0.013 A 
BRANCH   6  13
ATOM     12  C   UNL     1     -27.800 -13.867  21.175  0.00  0.00    +0.091 C 
ATOM     13  C   UNL     1     -27.725 -13.005  19.950  0.00  0.00    +0.160 C 
ATOM     14  O   UNL     1     -26.765 -13.183  19.152  0.00  0.00    -0.292 OA
ENDBRANCH   6  13
ENDBRANCH   3   9
ENDBRANCH   1   3
BRANCH   1  15
ATOM     15  C   UNL     1     -33.306  -9.798  16.703  0.00  0.00    +0.117 C 
BRANCH  15  16
ATOM     16  C   UNL     1     -32.592 -11.087  16.348  0.00  0.00    -0.028 A 
ATOM     17  C   UNL     1     -31.701 -11.129  15.261  0.00  0.00    +0.005 A 
ATOM     18  C   UNL     1     -31.020 -12.308  14.947  0.00  0.00    +0.003 A 
ATOM     19  C   UNL     1     -31.225 -13.467  15.708  0.00  0.00    -0.050 A 
ATOM     20  C   UNL     1     -30.462 -14.721  15.395  0.00  0.00    +0.044 C 
ATOM     21  C   UNL     1     -32.092 -13.425  16.809  0.00  0.00    +0.003 A 
ATOM     22  C   UNL     1     -32.774 -12.246  17.125  0.00  0.00    +0.005 A 
ENDBRANCH  15  16
BRANCH  15  23
ATOM     23  C   UNL     1     -34.193  -9.328  15.526  0.00  0.00    +0.145 C 
BRANCH  23  24
ATOM     24  C   UNL     1     -34.463  -7.855  15.599  0.00  0.00    +0.307 C 
ATOM     25  O   UNL     1     -34.632  -7.192  14.541  0.00  0.00    -0.251 OA
BRANCH  24  26
ATOM     26  O   UNL     1     -34.484  -7.215  16.833  0.00  0.00    -0.481 OA
ATOM     27  H   UNL     1     -34.979  -7.619  17.620  0.00  0.00    +0.295 HD
ENDBRANCH  24  26
ENDBRANCH  23  24
ENDBRANCH  15  23
ENDBRANCH   1  15
TORSDOF 8
ENDMDL
MODEL 5
REMARK VINA RESULT:    -4.632      1.877      6.104
REMARK INTER + INTRA:          -9.038
REMARK INTER:                  -6.636
REMARK INTRA:                  -2.402
REMARK UNBOUND:                -2.375
REMARK  Name = 
REMARK  10 active torsions:
REMARK  status: ('A' for Active; 'I' for Inactive)
REMARK    1  A    between atoms: C_1  and  C_2
REMARK    2  A    between atoms: C_2  and  C_4
REMARK    3  A    between atoms: C_7  and  S_10
REMARK    4  A    between atoms: S_10  and  N_13
REMARK    5  A    between atoms: N_13  and  C_14
REMARK    6  A    between atoms: C_14  and  C_15
REMARK    7  A    between atoms: C_14  and  C_19
REMARK    8  A    between atoms: C_15  and  C_16
REMARK    9  A    between atoms: C_16  and  O_18
REMARK   10  A    between atoms: C_22  and  C_23
REMARK                            x       y       z     vdW  Elec       q    Type
REMARK                         _______ _______ _______ _____ _____    ______ ____
ROOT
ATOM      1  N   UNL     1     -31.713  -9.659  18.178  0.00  0.00    -0.182 NA
ATOM      2  H   UNL     1     -32.240  -8.779  17.975  0.00  0.00    +0.149 HD
ENDROOT
BRANCH   1   3
ATOM      3  S   UNL     1     -30.946  -9.479  19.731  0.00  0.00    +0.059 S 
ATOM      4  O   UNL     1     -30.179  -8.187  19.766  0.00  0.00    -0.153 OA
ATOM      5  O   UNL     1     -32.003  -9.432  20.799  0.00  0.00    -0.153 OA
BRANCH   3   9
ATOM      6  C   UNL     1     -28.066 -12.933  20.608  0.00  0.00    +0.017 A 
ATOM      7  C   UNL     1     -29.140 -12.657  21.478  0.00  0.00    +0.013 A 
ATOM      8  C   UNL     1     -30.028 -11.615  21.201  0.00  0.00    +0.029 A 
ATOM      9  C   UNL     1     -29.862 -10.831  20.053  0.00  0.00    +0.105 A 
ATOM     10  C   UNL     1     -28.798 -11.096  19.185  0.00  0.00    +0.029 A 
ATOM     11  C   UNL     1     -27.909 -12.138  19.457  0.00  0.00    +0.013 A 
BRANCH   6  13
ATOM     12  C   UNL     1     -25.673 -13.970  20.456  0.00  0.00    +0.091 C 
ATOM     13  C   UNL     1     -27.107 -14.036  20.889  0.00  0.00    +0.160 C 
ATOM     14  O   UNL     1     -27.498 -15.062  21.509  0.00  0.00    -0.292 OA
ENDBRANCH   6  13
ENDBRANCH   3   9
ENDBRANCH   1   3
BRANCH   1  15
ATOM     15  C   UNL     1     -32.603 -10.836  18.135  0.00  0.00    +0.117 C 
BRANCH  15  16
ATOM     16  C   UNL     1     -31.941 -11.924  17.314  0.00  0.00    -0.028 A 
ATOM     17  C   UNL     1     -31.283 -11.606  16.112  0.00  0.00    +0.005 A 
ATOM     18  C   UNL     1     -30.649 -12.603  15.366  0.00  0.00    +0.003 A 
ATOM     19  C   UNL     1     -30.668 -13.935  15.803  0.00  0.00    -0.050 A 
ATOM     20  C   UNL     1     -29.951 -14.997  15.022  0.00  0.00    +0.044 C 
ATOM     21  C   UNL     1     -31.300 -14.254  17.013  0.00  0.00    +0.003 A 
ATOM     22  C   UNL     1     -31.935 -13.258  17.762  0.00  0.00    +0.005 A 
ENDBRANCH  15  16
BRANCH  15  23
ATOM     23  C   UNL     1     -33.989 -10.480  17.547  0.00  0.00    +0.145 C 
BRANCH  23  24
ATOM     24  C   UNL     1     -34.144  -9.001  17.368  0.00  0.00    +0.307 C 
ATOM     25  O   UNL     1     -35.042  -8.380  17.997  0.00  0.00    -0.251 OA
BRANCH  24  26
ATOM     26  O   UNL     1     -33.325  -8.321  16.472  0.00  0.00    -0.481 OA
ATOM     27  H   UNL     1     -32.599  -8.808  15.960  0.00  0.00    +0.295 HD
ENDBRANCH  24  26
ENDBRANCH  23  24
ENDBRANCH  15  23
ENDBRANCH   1  15
TORSDOF 8
ENDMDL
MODEL 6
REMARK VINA RESULT:    -4.401      2.790      5.119
REMARK INTER + INTRA:          -8.705
REMARK INTER:                  -6.177
REMARK INTRA:                  -2.528
REMARK UNBOUND:                -2.375
REMARK  Name = 
REMARK  10 active torsions:
REMARK  status: ('A' for Active; 'I' for Inactive)
REMARK    1  A    between atoms: C_1  and  C_2
REMARK    2  A    between atoms: C_2  and  C_4
REMARK    3  A    between atoms: C_7  and  S_10
REMARK    4  A    between atoms: S_10  and  N_13
REMARK    5  A    between atoms: N_13  and  C_14
REMARK    6  A    between atoms: C_14  and  C_15
REMARK    7  A    between atoms: C_14  and  C_19
REMARK    8  A    between atoms: C_15  and  C_16
REMARK    9  A    between atoms: C_16  and  O_18
REMARK   10  A    between atoms: C_22  and  C_23
REMARK                            x       y       z     vdW  Elec       q    Type
REMARK                         _______ _______ _______ _____ _____    ______ ____
ROOT
ATOM      1  N   UNL     1     -29.717 -14.356  17.997  0.00  0.00    -0.182 NA
ATOM      2  H   UNL     1     -29.276 -15.304  18.041  0.00  0.00    +0.149 HD
ENDROOT
BRANCH   1   3
ATOM      3  S   UNL     1     -28.796 -13.289  19.020  0.00  0.00    +0.059 S 
ATOM      4  O   UNL     1     -28.345 -14.033  20.246  0.00  0.00    -0.153 OA
ATOM      5  O   UNL     1     -27.578 -12.821  18.274  0.00  0.00    -0.153 OA
BRANCH   3   9
ATOM      6  C   UNL     1     -31.341  -9.651  20.155  0.00  0.00    +0.017 A 
ATOM      7  C   UNL     1     -31.687 -10.939  20.613  0.00  0.00    +0.013 A 
ATOM      8  C   UNL     1     -30.901 -12.045  20.281  0.00  0.00    +0.029 A 
ATOM      9  C   UNL     1     -29.758 -11.888  19.488  0.00  0.00    +0.105 A 
ATOM     10  C   UNL     1     -29.408 -10.615  19.027  0.00  0.00    +0.029 A 
ATOM     11  C   UNL     1     -30.190  -9.506  19.358  0.00  0.00    +0.013 A 
BRANCH   6  13
ATOM     12  C   UNL     1     -33.176  -7.898  19.537  0.00  0.00    +0.091 C 
ATOM     13  C   UNL     1     -32.169  -8.463  20.494  0.00  0.00    +0.160 C 
ATOM     14  O   UNL     1     -32.030  -7.902  21.615  0.00  0.00    -0.292 OA
ENDBRANCH   6  13
ENDBRANCH   3   9
ENDBRANCH   1   3
BRANCH   1  15
ATOM     15  C   UNL     1     -29.785 -13.864  16.607  0.00  0.00    +0.117 C 
BRANCH  15  16
ATOM     16  C   UNL     1     -30.972 -12.932  16.472  0.00  0.00    -0.028 A 
ATOM     17  C   UNL     1     -32.212 -13.275  17.041  0.00  0.00    +0.005 A 
ATOM     18  C   UNL     1     -33.302 -12.406  16.942  0.00  0.00    +0.003 A 
ATOM     19  C   UNL     1     -33.174 -11.184  16.266  0.00  0.00    -0.050 A 
ATOM     20  C   UNL     1     -34.334 -10.234  16.197  0.00  0.00    +0.044 C 
ATOM     21  C   UNL     1     -31.934 -10.826  15.720  0.00  0.00    +0.003 A 
ATOM     22  C   UNL     1     -30.842 -11.693  15.819  0.00  0.00    +0.005 A 
ENDBRANCH  15  16
BRANCH  15  23
ATOM     23  C   UNL     1     -29.893 -15.030  15.596  0.00  0.00    +0.145 C 
BRANCH  23  24
ATOM     24  C   UNL     1     -28.836 -14.936  14.537  0.00  0.00    +0.307 C 
ATOM     25  O   UNL     1     -29.165 -14.861  13.323  0.00  0.00    -0.251 OA
BRANCH  24  26
ATOM     26  O   UNL     1     -27.492 -14.978  14.894  0.00  0.00    -0.481 OA
ATOM     27  H   UNL     1     -26.779 -15.195  14.208  0.00  0.00    +0.295 HD
ENDBRANCH  24  26
ENDBRANCH  23  24
ENDBRANCH  15  23
ENDBRANCH   1  15
TORSDOF 8
ENDMDL
MODEL 7
REMARK VINA RESULT:    -4.320      3.232      4.970
REMARK INTER + INTRA:          -8.589
REMARK INTER:                  -5.806
REMARK INTRA:                  -2.783
REMARK UNBOUND:                -2.375
REMARK  Name = 
REMARK  10 active torsions:
REMARK  status: ('A' for Active; 'I' for Inactive)
REMARK    1  A    between atoms: C_1  and  C_2
REMARK    2  A    between atoms: C_2  and  C_4
REMARK    3  A    between atoms: C_7  and  S_10
REMARK    4  A    between atoms: S_10  and  N_13
REMARK    5  A    between atoms: N_13  and  C_14
REMARK    6  A    between atoms: C_14  and  C_15
REMARK    7  A    between atoms: C_14  and  C_19
REMARK    8  A    between atoms: C_15  and  C_16
REMARK    9  A    between atoms: C_16  and  O_18
REMARK   10  A    between atoms: C_22  and  C_23
REMARK                            x       y       z     vdW  Elec       q    Type
REMARK                         _______ _______ _______ _____ _____    ______ ____
ROOT
ATOM      1  N   UNL     1     -32.693  -9.654  19.210  0.00  0.00    -0.182 NA
ATOM      2  H   UNL     1     -33.327  -9.062  19.795  0.00  0.00    +0.149 HD
ENDROOT
BRANCH   1   3
ATOM      3  S   UNL     1     -33.481  -9.937  17.683  0.00  0.00    +0.059 S 
ATOM      4  O   UNL     1     -34.908 -10.343  17.922  0.00  0.00    -0.153 OA
ATOM      5  O   UNL     1     -33.478  -8.663  16.885  0.00  0.00    -0.153 OA
BRANCH   3   9
ATOM      6  C   UNL     1     -31.223 -13.164  15.341  0.00  0.00    +0.017 A 
ATOM      7  C   UNL     1     -31.777 -13.451  16.605  0.00  0.00    +0.013 A 
ATOM      8  C   UNL     1     -32.481 -12.472  17.311  0.00  0.00    +0.029 A 
ATOM      9  C   UNL     1     -32.643 -11.190  16.771  0.00  0.00    +0.105 A 
ATOM     10  C   UNL     1     -32.095 -10.895  15.519  0.00  0.00    +0.029 A 
ATOM     11  C   UNL     1     -31.392 -11.872  14.809  0.00  0.00    +0.013 A 
BRANCH   6  13
ATOM     12  C   UNL     1     -29.274 -14.893  15.156  0.00  0.00    +0.091 C 
ATOM     13  C   UNL     1     -30.466 -14.192  14.577  0.00  0.00    +0.160 C 
ATOM     14  O   UNL     1     -30.827 -14.493  13.407  0.00  0.00    -0.292 OA
ENDBRANCH   6  13
ENDBRANCH   3   9
ENDBRANCH   1   3
BRANCH   1  15
ATOM     15  C   UNL     1     -31.373  -9.014  19.040  0.00  0.00    +0.117 C 
BRANCH  15  16
ATOM     16  C   UNL     1     -30.292 -10.057  19.239  0.00  0.00    -0.028 A 
ATOM     17  C   UNL     1     -30.265 -10.838  20.408  0.00  0.00    +0.005 A 
ATOM     18  C   UNL     1     -29.285 -11.819  20.583  0.00  0.00    +0.003 A 
ATOM     19  C   UNL     1     -28.310 -12.030  19.598  0.00  0.00    -0.050 A 
ATOM     20  C   UNL     1     -27.284 -13.111  19.769  0.00  0.00    +0.044 C 
ATOM     21  C   UNL     1     -28.347 -11.272  18.419  0.00  0.00    +0.003 A 
ATOM     22  C   UNL     1     -29.328 -10.291  18.241  0.00  0.00    +0.005 A 
ENDBRANCH  15  16
BRANCH  15  23
ATOM     23  C   UNL     1     -31.180  -7.837  20.025  0.00  0.00    +0.145 C 
BRANCH  23  24
ATOM     24  C   UNL     1     -32.210  -6.770  19.811  0.00  0.00    +0.307 C 
ATOM     25  O   UNL     1     -32.468  -5.949  20.732  0.00  0.00    -0.251 OA
BRANCH  24  26
ATOM     26  O   UNL     1     -32.912  -6.714  18.612  0.00  0.00    -0.481 OA
ATOM     27  H   UNL     1     -33.860  -6.359  18.581  0.00  0.00    +0.295 HD
ENDBRANCH  24  26
ENDBRANCH  23  24
ENDBRANCH  15  23
ENDBRANCH   1  15
TORSDOF 8
ENDMDL
MODEL 8
REMARK VINA RESULT:    -4.319      2.473      3.635
REMARK INTER + INTRA:          -8.587
REMARK INTER:                  -7.233
REMARK INTRA:                  -1.354
REMARK UNBOUND:                -2.375
REMARK  Name = 
REMARK  10 active torsions:
REMARK  status: ('A' for Active; 'I' for Inactive)
REMARK    1  A    between atoms: C_1  and  C_2
REMARK    2  A    between atoms: C_2  and  C_4
REMARK    3  A    between atoms: C_7  and  S_10
REMARK    4  A    between atoms: S_10  and  N_13
REMARK    5  A    between atoms: N_13  and  C_14
REMARK    6  A    between atoms: C_14  and  C_15
REMARK    7  A    between atoms: C_14  and  C_19
REMARK    8  A    between atoms: C_15  and  C_16
REMARK    9  A    between atoms: C_16  and  O_18
REMARK   10  A    between atoms: C_22  and  C_23
REMARK                            x       y       z     vdW  Elec       q    Type
REMARK                         _______ _______ _______ _____ _____    ______ ____
ROOT
ATOM      1  N   UNL     1     -30.740 -11.607  18.731  0.00  0.00    -0.182 NA
ATOM      2  H   UNL     1     -31.724 -11.931  18.877  0.00  0.00    +0.149 HD
ENDROOT
BRANCH   1   3
ATOM      3  S   UNL     1     -30.770 -10.298  17.583  0.00  0.00    +0.059 S 
ATOM      4  O   UNL     1     -31.414  -9.094  18.212  0.00  0.00    -0.153 OA
ATOM      5  O   UNL     1     -29.360  -9.939  17.208  0.00  0.00    -0.153 OA
BRANCH   3   9
ATOM      6  C   UNL     1     -33.113 -11.564  13.854  0.00  0.00    +0.017 A 
ATOM      7  C   UNL     1     -33.497 -10.424  14.590  0.00  0.00    +0.013 A 
ATOM      8  C   UNL     1     -32.772 -10.029  15.717  0.00  0.00    +0.029 A 
ATOM      9  C   UNL     1     -31.653 -10.761  16.130  0.00  0.00    +0.105 A 
ATOM     10  C   UNL     1     -31.265 -11.894  15.408  0.00  0.00    +0.029 A 
ATOM     11  C   UNL     1     -31.986 -12.293  14.280  0.00  0.00    +0.013 A 
BRANCH   6  13
ATOM     12  C   UNL     1     -33.560 -13.282  11.938  0.00  0.00    +0.091 C 
ATOM     13  C   UNL     1     -33.876 -12.003  12.655  0.00  0.00    +0.160 C 
ATOM     14  O   UNL     1     -34.818 -11.289  12.216  0.00  0.00    -0.292 OA
ENDBRANCH   6  13
ENDBRANCH   3   9
ENDBRANCH   1   3
BRANCH   1  15
ATOM     15  C   UNL     1     -30.116 -11.208  20.008  0.00  0.00    +0.117 C 
BRANCH  15  16
ATOM     16  C   UNL     1     -28.954 -12.135  20.300  0.00  0.00    -0.028 A 
ATOM     17  C   UNL     1     -29.018 -13.037  21.377  0.00  0.00    +0.005 A 
ATOM     18  C   UNL     1     -27.959 -13.912  21.632  0.00  0.00    +0.003 A 
ATOM     19  C   UNL     1     -26.815 -13.895  20.822  0.00  0.00    -0.050 A 
ATOM     20  C   UNL     1     -25.697 -14.864  21.073  0.00  0.00    +0.044 C 
ATOM     21  C   UNL     1     -26.756 -13.016  19.732  0.00  0.00    +0.003 A 
ATOM     22  C   UNL     1     -27.815 -12.140  19.474  0.00  0.00    +0.005 A 
ENDBRANCH  15  16
BRANCH  15  23
ATOM     23  C   UNL     1     -31.135 -11.232  21.172  0.00  0.00    +0.145 C 
BRANCH  23  24
ATOM     24  C   UNL     1     -32.531 -11.446  20.672  0.00  0.00    +0.307 C 
ATOM     25  O   UNL     1     -33.398 -10.543  20.818  0.00  0.00    -0.251 OA
BRANCH  24  26
ATOM     26  O   UNL     1     -32.881 -12.659  20.088  0.00  0.00    -0.481 OA
ATOM     27  H   UNL     1     -32.171 -13.284  19.724  0.00  0.00    +0.295 HD
ENDBRANCH  24  26
ENDBRANCH  23  24
ENDBRANCH  15  23
ENDBRANCH   1  15
TORSDOF 8
ENDMDL
MODEL 9
REMARK VINA RESULT:    -4.291      2.419      5.195
REMARK INTER + INTRA:          -8.547
REMARK INTER:                  -5.999
REMARK INTRA:                  -2.548
REMARK UNBOUND:                -2.375
REMARK  Name = 
REMARK  10 active torsions:
REMARK  status: ('A' for Active; 'I' for Inactive)
REMARK    1  A    between atoms: C_1  and  C_2
REMARK    2  A    between atoms: C_2  and  C_4
REMARK    3  A    between atoms: C_7  and  S_10
REMARK    4  A    between atoms: S_10  and  N_13
REMARK    5  A    between atoms: N_13  and  C_14
REMARK    6  A    between atoms: C_14  and  C_15
REMARK    7  A    between atoms: C_14  and  C_19
REMARK    8  A    between atoms: C_15  and  C_16
REMARK    9  A    between atoms: C_16  and  O_18
REMARK   10  A    between atoms: C_22  and  C_23
REMARK                            x       y       z     vdW  Elec       q    Type
REMARK                         _______ _______ _______ _____ _____    ______ ____
ROOT
ATOM      1  N   UNL     1     -30.466  -9.590  20.555  0.00  0.00    -0.182 NA
ATOM      2  H   UNL     1     -30.218  -9.045  21.412  0.00  0.00    +0.149 HD
ENDROOT
BRANCH   1   3
ATOM      3  S   UNL     1     -30.247 -11.280  20.911  0.00  0.00    +0.059 S 
ATOM      4  O   UNL     1     -29.116 -11.445  21.889  0.00  0.00    -0.153 OA
ATOM      5  O   UNL     1     -31.500 -11.817  21.543  0.00  0.00    -0.153 OA
BRANCH   3   9
ATOM      6  C   UNL     1     -29.417 -13.587  17.040  0.00  0.00    +0.017 A 
ATOM      7  C   UNL     1     -28.507 -12.616  17.505  0.00  0.00    +0.013 A 
ATOM      8  C   UNL     1     -28.752 -11.925  18.694  0.00  0.00    +0.029 A 
ATOM      9  C   UNL     1     -29.907 -12.190  19.441  0.00  0.00    +0.105 A 
ATOM     10  C   UNL     1     -30.816 -13.150  18.987  0.00  0.00    +0.029 A 
ATOM     11  C   UNL     1     -30.575 -13.844  17.799  0.00  0.00    +0.013 A 
BRANCH   6  13
ATOM     12  C   UNL     1     -30.296 -14.713  14.853  0.00  0.00    +0.091 C 
ATOM     13  C   UNL     1     -29.176 -14.330  15.774  0.00  0.00    +0.160 C 
ATOM     14  O   UNL     1     -28.000 -14.653  15.452  0.00  0.00    -0.292 OA
ENDBRANCH   6  13
ENDBRANCH   3   9
ENDBRANCH   1   3
BRANCH   1  15
ATOM     15  C   UNL     1     -31.844  -9.293  20.115  0.00  0.00    +0.117 C 
BRANCH  15  16
ATOM     16  C   UNL     1     -32.001  -9.716  18.669  0.00  0.00    -0.028 A 
ATOM     17  C   UNL     1     -31.009  -9.397  17.724  0.00  0.00    +0.005 A 
ATOM     18  C   UNL     1     -31.138  -9.809  16.395  0.00  0.00    +0.003 A 
ATOM     19  C   UNL     1     -32.263 -10.538  15.985  0.00  0.00    -0.050 A 
ATOM     20  C   UNL     1     -32.379 -11.014  14.567  0.00  0.00    +0.044 C 
ATOM     21  C   UNL     1     -33.242 -10.880  16.927  0.00  0.00    +0.003 A 
ATOM     22  C   UNL     1     -33.115 -10.471  18.258  0.00  0.00    +0.005 A 
ENDBRANCH  15  16
BRANCH  15  23
ATOM     23  C   UNL     1     -32.185  -7.794  20.282  0.00  0.00    +0.145 C 
BRANCH  23  24
ATOM     24  C   UNL     1     -31.108  -7.068  21.030  0.00  0.00    +0.307 C 
ATOM     25  O   UNL     1     -31.395  -6.404  22.062  0.00  0.00    -0.251 OA
BRANCH  24  26
ATOM     26  O   UNL     1     -29.800  -7.091  20.558  0.00  0.00    -0.481 OA
ATOM     27  H   UNL     1     -29.328  -6.234  20.292  0.00  0.00    +0.295 HD
ENDBRANCH  24  26
ENDBRANCH  23  24
ENDBRANCH  15  23
ENDBRANCH   1  15
TORSDOF 8
ENDMDL
