MODEL 1
REMARK VINA RESULT:    -4.141      0.000      0.000
REMARK INTER + INTRA:          -5.988
REMARK INTER:                  -5.351
REMARK INTRA:                  -0.637
REMARK UNBOUND:                -0.637
REMARK  Name = 
REMARK  5 active torsions:
REMARK  status: ('A' for Active; 'I' for Inactive)
REMARK    1  A    between atoms: C_2  and  C_14
REMARK    2  A    between atoms: N_3  and  C_4
REMARK    3  A    between atoms: C_17  and  N_20
REMARK    4  A    between atoms: N_20  and  S_21
REMARK    5  A    between atoms: S_21  and  C_24
REMARK                            x       y       z     vdW  Elec       q    Type
REMARK                         _______ _______ _______ _____ _____    ______ ____
ROOT
ATOM      1  C   UNL     1     -33.000  -9.504  16.654  0.00  0.00    +0.037 A 
ATOM      2  C   UNL     1     -32.691  -9.678  18.014  0.00  0.00    +0.015 A 
ATOM      3  C   UNL     1     -33.315  -8.897  18.991  0.00  0.00    +0.025 A 
ATOM      4  C   UNL     1     -34.266  -7.927  18.628  0.00  0.00    +0.048 A 
ATOM      5  C   UNL     1     -34.590  -7.770  17.273  0.00  0.00    +0.025 A 
ATOM      6  C   UNL     1     -33.968  -8.550  16.295  0.00  0.00    +0.015 A 
ENDROOT
BRANCH   1   8
ATOM      7  O   UNL     1     -31.241  -9.952  15.136  0.00  0.00    -0.270 OA
ATOM      8  C   UNL     1     -32.330 -10.348  15.633  0.00  0.00    +0.248 C 
ATOM      9  N   UNL     1     -32.897 -11.603  15.215  0.00  0.00    -0.280 N 
ATOM     10  H   UNL     1     -33.757 -11.958  15.687  0.00  0.00    +0.155 HD
BRANCH   9  11
ATOM     11  C   UNL     1     -32.312 -12.438  14.200  0.00  0.00    +0.060 A 
ATOM     12  C   UNL     1     -32.871 -12.505  12.912  0.00  0.00    +0.025 A 
ATOM     13  C   UNL     1     -32.316 -13.340  11.938  0.00  0.00    +0.003 A 
ATOM     14  C   UNL     1     -31.204 -14.130  12.237  0.00  0.00    +0.010 A 
ATOM     15  C   UNL     1     -30.644 -14.093  13.520  0.00  0.00    +0.002 A 
ATOM     16  C   UNL     1     -29.533 -14.882  13.847  0.00  0.00    +0.011 A 
ATOM     17  C   UNL     1     -28.994 -14.825  15.134  0.00  0.00    +0.020 A 
ATOM     18  C   UNL     1     -29.571 -13.979  16.082  0.00  0.00    +0.111 A 
ATOM     19  N   UNL     1     -30.648 -13.217  15.754  0.00  0.00    -0.253 NA
ATOM     20  C   UNL     1     -31.202 -13.249  14.509  0.00  0.00    +0.092 A 
ENDBRANCH   9  11
ENDBRANCH   1   8
BRANCH   4  21
ATOM     21  N   UNL     1     -34.924  -7.101  19.607  0.00  0.00    -0.216 N 
ATOM     22  H   UNL     1     -35.779  -6.570  19.329  0.00  0.00    +0.174 HD
BRANCH  21  23
ATOM     23  S   UNL     1     -34.327  -6.838  21.215  0.00  0.00    +0.072 S 
ATOM     24  O   UNL     1     -34.573  -8.071  22.039  0.00  0.00    -0.150 OA
ATOM     25  O   UNL     1     -35.062  -5.682  21.833  0.00  0.00    -0.150 OA
BRANCH  23  26
ATOM     26  C   UNL     1     -32.609  -6.453  21.165  0.00  0.00    +0.108 A 
ATOM     27  C   UNL     1     -31.674  -7.356  21.692  0.00  0.00    +0.029 A 
ATOM     28  C   UNL     1     -30.309  -7.050  21.663  0.00  0.00    +0.002 A 
ATOM     29  C   UNL     1     -29.874  -5.843  21.107  0.00  0.00    +0.000 A 
ATOM     30  C   UNL     1     -30.803  -4.943  20.576  0.00  0.00    +0.002 A 
ATOM     31  C   UNL     1     -32.168  -5.246  20.603  0.00  0.00    +0.029 A 
ENDBRANCH  23  26
ENDBRANCH  21  23
ENDBRANCH   4  21
TORSDOF 5
ENDMDL
MODEL 2
REMARK VINA RESULT:    -2.150      2.916      9.205
REMARK INTER + INTRA:          -3.416
REMARK INTER:                  -2.514
REMARK INTRA:                  -0.901
REMARK UNBOUND:                -0.637
REMARK  Name = 
REMARK  5 active torsions:
REMARK  status: ('A' for Active; 'I' for Inactive)
REMARK    1  A    between atoms: C_2  and  C_14
REMARK    2  A    between atoms: N_3  and  C_4
REMARK    3  A    between atoms: C_17  and  N_20
REMARK    4  A    between atoms: N_20  and  S_21
REMARK    5  A    between atoms: S_21  and  C_24
REMARK                            x       y       z     vdW  Elec       q    Type
REMARK                         _______ _______ _______ _____ _____    ______ ____
ROOT
ATOM      1  C   UNL     1     -33.181  -9.155  16.327  0.00  0.00    +0.037 A 
ATOM      2  C   UNL     1     -31.985  -9.891  16.383  0.00  0.00    +0.015 A 
ATOM      3  C   UNL     1     -31.626 -10.747  15.338  0.00  0.00    +0.025 A 
ATOM      4  C   UNL     1     -32.455 -10.882  14.209  0.00  0.00    +0.048 A 
ATOM      5  C   UNL     1     -33.637 -10.130  14.145  0.00  0.00    +0.025 A 
ATOM      6  C   UNL     1     -33.998  -9.275  15.189  0.00  0.00    +0.015 A 
ENDROOT
BRANCH   1   8
ATOM      7  O   UNL     1     -34.169  -7.186  17.190  0.00  0.00    -0.270 OA
ATOM      8  C   UNL     1     -33.540  -8.249  17.445  0.00  0.00    +0.248 C 
ATOM      9  N   UNL     1     -33.191  -8.568  18.805  0.00  0.00    -0.280 N 
ATOM     10  H   UNL     1     -32.739  -9.484  19.014  0.00  0.00    +0.155 HD
BRANCH   9  11
ATOM     11  C   UNL     1     -33.477  -7.706  19.920  0.00  0.00    +0.060 A 
ATOM     12  C   UNL     1     -34.778  -7.620  20.448  0.00  0.00    +0.025 A 
ATOM     13  C   UNL     1     -35.058  -6.759  21.513  0.00  0.00    +0.003 A 
ATOM     14  C   UNL     1     -34.050  -5.963  22.060  0.00  0.00    +0.010 A 
ATOM     15  C   UNL     1     -32.752  -6.019  21.536  0.00  0.00    +0.002 A 
ATOM     16  C   UNL     1     -31.724  -5.225  22.062  0.00  0.00    +0.011 A 
ATOM     17  C   UNL     1     -30.440  -5.301  21.521  0.00  0.00    +0.020 A 
ATOM     18  C   UNL     1     -30.193  -6.172  20.458  0.00  0.00    +0.111 A 
ATOM     19  N   UNL     1     -31.197  -6.939  19.957  0.00  0.00    -0.253 NA
ATOM     20  C   UNL     1     -32.464  -6.889  20.458  0.00  0.00    +0.092 A 
ENDBRANCH   9  11
ENDBRANCH   1   8
BRANCH   4  21
ATOM     21  N   UNL     1     -32.120 -11.757  13.117  0.00  0.00    -0.216 N 
ATOM     22  H   UNL     1     -31.953 -11.347  12.171  0.00  0.00    +0.174 HD
BRANCH  21  23
ATOM     23  S   UNL     1     -32.077 -13.488  13.239  0.00  0.00    +0.072 S 
ATOM     24  O   UNL     1     -32.566 -14.084  11.949  0.00  0.00    -0.150 OA
ATOM     25  O   UNL     1     -32.981 -13.928  14.355  0.00  0.00    -0.150 OA
BRANCH  23  26
ATOM     26  C   UNL     1     -30.438 -14.027  13.594  0.00  0.00    +0.108 A 
ATOM     27  C   UNL     1     -29.589 -14.419  12.549  0.00  0.00    +0.029 A 
ATOM     28  C   UNL     1     -28.290 -14.857  12.826  0.00  0.00    +0.002 A 
ATOM     29  C   UNL     1     -27.834 -14.903  14.148  0.00  0.00    +0.000 A 
ATOM     30  C   UNL     1     -28.676 -14.508  15.192  0.00  0.00    +0.002 A 
ATOM     31  C   UNL     1     -29.975 -14.070  14.917  0.00  0.00    +0.029 A 
ENDBRANCH  23  26
ENDBRANCH  21  23
ENDBRANCH   4  21
TORSDOF 5
ENDMDL
MODEL 3
REMARK VINA RESULT:    -1.677      3.026      8.781
REMARK INTER + INTRA:          -2.805
REMARK INTER:                  -2.487
REMARK INTRA:                  -0.318
REMARK UNBOUND:                -0.637
REMARK  Name = 
REMARK  5 active torsions:
REMARK  status: ('A' for Active; 'I' for Inactive)
REMARK    1  A    between atoms: C_2  and  C_14
REMARK    2  A    between atoms: N_3  and  C_4
REMARK    3  A    between atoms: C_17  and  N_20
REMARK    4  A    between atoms: N_20  and  S_21
REMARK    5  A    between atoms: S_21  and  C_24
REMARK                            x       y       z     vdW  Elec       q    Type
REMARK                         _______ _______ _______ _____ _____    ______ ____
ROOT
ATOM      1  C   UNL     1     -33.081  -9.547  16.487  0.00  0.00    +0.037 A 
ATOM      2  C   UNL     1     -33.996 -10.302  15.734  0.00  0.00    +0.015 A 
ATOM      3  C   UNL     1     -33.547 -11.237  14.798  0.00  0.00    +0.025 A 
ATOM      4  C   UNL     1     -32.169 -11.440  14.597  0.00  0.00    +0.048 A 
ATOM      5  C   UNL     1     -31.258 -10.701  15.365  0.00  0.00    +0.025 A 
ATOM      6  C   UNL     1     -31.705  -9.766  16.301  0.00  0.00    +0.015 A 
ENDROOT
BRANCH   1   8
ATOM      7  O   UNL     1     -34.647  -7.938  17.235  0.00  0.00    -0.270 OA
ATOM      8  C   UNL     1     -33.580  -8.563  17.480  0.00  0.00    +0.248 C 
ATOM      9  N   UNL     1     -32.873  -8.322  18.711  0.00  0.00    -0.280 N 
ATOM     10  H   UNL     1     -32.033  -8.899  18.939  0.00  0.00    +0.155 HD
BRANCH   9  11
ATOM     11  C   UNL     1     -33.288  -7.351  19.687  0.00  0.00    +0.060 A 
ATOM     12  C   UNL     1     -34.652  -7.074  19.892  0.00  0.00    +0.025 A 
ATOM     13  C   UNL     1     -35.051  -6.109  20.821  0.00  0.00    +0.003 A 
ATOM     14  C   UNL     1     -34.097  -5.398  21.551  0.00  0.00    +0.010 A 
ATOM     15  C   UNL     1     -32.733  -5.644  21.348  0.00  0.00    +0.002 A 
ATOM     16  C   UNL     1     -31.756  -4.938  22.063  0.00  0.00    +0.011 A 
ATOM     17  C   UNL     1     -30.404  -5.204  21.841  0.00  0.00    +0.020 A 
ATOM     18  C   UNL     1     -30.040  -6.175  20.907  0.00  0.00    +0.111 A 
ATOM     19  N   UNL     1     -30.996  -6.856  20.220  0.00  0.00    -0.253 NA
ATOM     20  C   UNL     1     -32.325  -6.620  20.409  0.00  0.00    +0.092 A 
ENDBRANCH   9  11
ENDBRANCH   1   8
BRANCH   4  21
ATOM     21  N   UNL     1     -31.670 -12.390  13.637  0.00  0.00    -0.216 N 
ATOM     22  H   UNL     1     -31.979 -12.315  12.642  0.00  0.00    +0.174 HD
BRANCH  21  23
ATOM     23  S   UNL     1     -30.657 -13.739  14.043  0.00  0.00    +0.072 S 
ATOM     24  O   UNL     1     -29.332 -13.585  13.352  0.00  0.00    -0.150 OA
ATOM     25  O   UNL     1     -31.310 -15.008  13.571  0.00  0.00    -0.150 OA
BRANCH  23  26
ATOM     26  C   UNL     1     -30.444 -13.830  15.789  0.00  0.00    +0.108 A 
ATOM     27  C   UNL     1     -31.515 -14.223  16.605  0.00  0.00    +0.029 A 
ATOM     28  C   UNL     1     -31.354 -14.288  17.993  0.00  0.00    +0.002 A 
ATOM     29  C   UNL     1     -30.123 -13.961  18.570  0.00  0.00    +0.000 A 
ATOM     30  C   UNL     1     -29.051 -13.573  17.760  0.00  0.00    +0.002 A 
ATOM     31  C   UNL     1     -29.210 -13.508  16.372  0.00  0.00    +0.029 A 
ENDBRANCH  23  26
ENDBRANCH  21  23
ENDBRANCH   4  21
TORSDOF 5
ENDMDL
