MODEL 1
REMARK VINA RESULT:    -4.309      0.000      0.000
REMARK INTER + INTRA:          -5.674
REMARK INTER:                  -5.316
REMARK INTRA:                  -0.358
REMARK UNBOUND:                -0.358
REMARK  Name = 
REMARK  5 active torsions:
REMARK  status: ('A' for Active; 'I' for Inactive)
REMARK    1  A    between atoms: C_1  and  S_2
REMARK    2  A    between atoms: S_2  and  C_5
REMARK    3  A    between atoms: N_13  and  C_14
REMARK    4  A    between atoms: C_14  and  C_15
REMARK    5  A    between atoms: C_14  and  C_21
REMARK                            x       y       z     vdW  Elec       q    Type
REMARK                         _______ _______ _______ _____ _____    ______ ____
ROOT
ATOM      1  C   UNL     1     -29.237 -11.837  19.528  0.00  0.00    +0.089 A 
ATOM      2  C   UNL     1     -29.514 -11.793  20.899  0.00  0.00    +0.029 A 
ATOM      3  C   UNL     1     -30.755 -11.347  21.352  0.00  0.00    +0.030 A 
ATOM      4  C   UNL     1     -31.732 -10.935  20.439  0.00  0.00    +0.076 A 
ATOM      5  N   UNL     1     -32.945 -10.529  20.892  0.00  0.00    -0.235 NA
ATOM      6  C   UNL     1     -33.916 -10.139  20.032  0.00  0.00    +0.223 A 
ATOM      7  N   UNL     1     -33.681 -10.138  18.696  0.00  0.00    -0.220 NA
ATOM      8  C   UNL     1     -32.486 -10.527  18.172  0.00  0.00    +0.130 A 
ATOM      9  N   UNL     1     -32.279 -10.458  16.744  0.00  0.00    -0.321 N 
ATOM     10  C   UNL     1     -31.463 -10.958  19.050  0.00  0.00    +0.042 A 
ATOM     11  C   UNL     1     -30.212 -11.433  18.605  0.00  0.00    +0.040 A 
ATOM     12  H   UNL     1     -31.316 -10.266  16.389  0.00  0.00    +0.148 HD
ENDROOT
BRANCH   1  14
ATOM     13  C   UNL     1     -26.971 -13.498  20.196  0.00  0.00    +0.200 C 
ATOM     14  S   UNL     1     -27.683 -12.440  18.958  0.00  0.00    -0.006 S 
ATOM     15  O   UNL     1     -27.877 -13.214  17.684  0.00  0.00    -0.170 OA
ATOM     16  O   UNL     1     -26.755 -11.289  18.686  0.00  0.00    -0.170 OA
ENDBRANCH   1  14
BRANCH   9  17
ATOM     17  C   UNL     1     -33.341 -10.452  15.725  0.00  0.00    +0.107 C 
BRANCH  17  18
ATOM     18  C   UNL     1     -33.015 -11.442  14.615  0.00  0.00    -0.009 A 
ATOM     19  C   UNL     1     -34.019 -11.855  13.722  0.00  0.00    +0.008 A 
ATOM     20  C   UNL     1     -33.725 -12.751  12.694  0.00  0.00    +0.020 A 
ATOM     21  C   UNL     1     -32.423 -13.234  12.562  0.00  0.00    +0.111 A 
ATOM     22  N   UNL     1     -31.458 -12.831  13.428  0.00  0.00    -0.263 NA
ATOM     23  C   UNL     1     -31.718 -11.959  14.438  0.00  0.00    +0.116 A 
ENDBRANCH  17  18
BRANCH  17  24
ATOM     24  C   UNL     1     -33.699  -9.010  15.270  0.00  0.00    +0.014 C 
ATOM     25  C   UNL     1     -35.059  -8.709  14.644  0.00  0.00    +0.006 C 
ATOM     26  C   UNL     1     -34.792  -8.337  16.092  0.00  0.00    +0.006 C 
ENDBRANCH  17  24
ENDBRANCH   9  17
TORSDOF 4
ENDMDL
MODEL 2
REMARK VINA RESULT:    -3.992      3.344      4.913
REMARK INTER + INTRA:          -5.283
REMARK INTER:                  -5.170
REMARK INTRA:                  -0.113
REMARK UNBOUND:                -0.358
REMARK  Name = 
REMARK  5 active torsions:
REMARK  status: ('A' for Active; 'I' for Inactive)
REMARK    1  A    between atoms: C_1  and  S_2
REMARK    2  A    between atoms: S_2  and  C_5
REMARK    3  A    between atoms: N_13  and  C_14
REMARK    4  A    between atoms: C_14  and  C_15
REMARK    5  A    between atoms: C_14  and  C_21
REMARK                            x       y       z     vdW  Elec       q    Type
REMARK                         _______ _______ _______ _____ _____    ______ ____
ROOT
ATOM      1  C   UNL     1     -32.040 -10.668  20.616  0.00  0.00    +0.089 A 
ATOM      2  C   UNL     1     -30.966 -10.356  21.458  0.00  0.00    +0.029 A 
ATOM      3  C   UNL     1     -29.662 -10.680  21.083  0.00  0.00    +0.030 A 
ATOM      4  C   UNL     1     -29.419 -11.324  19.864  0.00  0.00    +0.076 A 
ATOM      5  N   UNL     1     -28.143 -11.609  19.499  0.00  0.00    -0.235 NA
ATOM      6  C   UNL     1     -27.874 -12.217  18.320  0.00  0.00    +0.223 A 
ATOM      7  N   UNL     1     -28.887 -12.563  17.486  0.00  0.00    -0.220 NA
ATOM      8  C   UNL     1     -30.191 -12.313  17.791  0.00  0.00    +0.130 A 
ATOM      9  N   UNL     1     -31.229 -12.749  16.885  0.00  0.00    -0.321 N 
ATOM     10  C   UNL     1     -30.494 -11.660  19.009  0.00  0.00    +0.042 A 
ATOM     11  C   UNL     1     -31.805 -11.306  19.390  0.00  0.00    +0.040 A 
ATOM     12  H   UNL     1     -32.156 -13.017  17.283  0.00  0.00    +0.148 HD
ENDROOT
BRANCH   1  14
ATOM     13  C   UNL     1     -33.645  -8.685  21.971  0.00  0.00    +0.200 C 
ATOM     14  S   UNL     1     -33.681 -10.220  21.073  0.00  0.00    -0.006 S 
ATOM     15  O   UNL     1     -34.525 -10.063  19.840  0.00  0.00    -0.170 OA
ATOM     16  O   UNL     1     -34.283 -11.292  21.937  0.00  0.00    -0.170 OA
ENDBRANCH   1  14
BRANCH   9  17
ATOM     17  C   UNL     1     -31.051 -13.028  15.452  0.00  0.00    +0.107 C 
BRANCH  17  18
ATOM     18  C   UNL     1     -32.219 -12.464  14.653  0.00  0.00    -0.009 A 
ATOM     19  C   UNL     1     -32.377 -12.806  13.299  0.00  0.00    +0.008 A 
ATOM     20  C   UNL     1     -33.452 -12.304  12.565  0.00  0.00    +0.020 A 
ATOM     21  C   UNL     1     -34.369 -11.459  13.189  0.00  0.00    +0.111 A 
ATOM     22  N   UNL     1     -34.210 -11.131  14.498  0.00  0.00    -0.263 NA
ATOM     23  C   UNL     1     -33.171 -11.607  15.236  0.00  0.00    +0.116 A 
ENDBRANCH  17  18
BRANCH  17  24
ATOM     24  C   UNL     1     -30.704 -14.520  15.190  0.00  0.00    +0.014 C 
ATOM     25  C   UNL     1     -29.883 -14.923  13.967  0.00  0.00    +0.006 C 
ATOM     26  C   UNL     1     -29.226 -14.864  15.335  0.00  0.00    +0.006 C 
ENDBRANCH  17  24
ENDBRANCH   9  17
TORSDOF 4
ENDMDL
MODEL 3
REMARK VINA RESULT:    -3.951      3.736      5.198
REMARK INTER + INTRA:          -5.233
REMARK INTER:                  -5.446
REMARK INTRA:                   0.214
REMARK UNBOUND:                -0.358
REMARK  Name = 
REMARK  5 active torsions:
REMARK  status: ('A' for Active; 'I' for Inactive)
REMARK    1  A    between atoms: C_1  and  S_2
REMARK    2  A    between atoms: S_2  and  C_5
REMARK    3  A    between atoms: N_13  and  C_14
REMARK    4  A    between atoms: C_14  and  C_15
REMARK    5  A    between atoms: C_14  and  C_21
REMARK                            x       y       z     vdW  Elec       q    Type
REMARK                         _______ _______ _______ _____ _____    ______ ____
ROOT
ATOM      1  C   UNL     1     -32.718  -8.341  19.122  0.00  0.00    +0.089 A 
ATOM      2  C   UNL     1     -31.761  -7.920  20.053  0.00  0.00    +0.029 A 
ATOM      3  C   UNL     1     -30.511  -8.537  20.104  0.00  0.00    +0.030 A 
ATOM      4  C   UNL     1     -30.207  -9.585  19.229  0.00  0.00    +0.076 A 
ATOM      5  N   UNL     1     -28.978 -10.160  19.272  0.00  0.00    -0.235 NA
ATOM      6  C   UNL     1     -28.648 -11.166  18.428  0.00  0.00    +0.223 A 
ATOM      7  N   UNL     1     -29.554 -11.624  17.529  0.00  0.00    -0.220 NA
ATOM      8  C   UNL     1     -30.808 -11.100  17.435  0.00  0.00    +0.130 A 
ATOM      9  N   UNL     1     -31.745 -11.663  16.491  0.00  0.00    -0.321 N 
ATOM     10  C   UNL     1     -31.168 -10.034  18.293  0.00  0.00    +0.042 A 
ATOM     11  C   UNL     1     -32.419  -9.386  18.236  0.00  0.00    +0.040 A 
ATOM     12  H   UNL     1     -32.762 -11.643  16.727  0.00  0.00    +0.148 HD
ENDROOT
BRANCH   1  14
ATOM     13  C   UNL     1     -34.027  -5.784  18.823  0.00  0.00    +0.200 C 
ATOM     14  S   UNL     1     -34.280  -7.531  19.031  0.00  0.00    -0.006 S 
ATOM     15  O   UNL     1     -35.062  -8.070  17.867  0.00  0.00    -0.170 OA
ATOM     16  O   UNL     1     -35.060  -7.779  20.293  0.00  0.00    -0.170 OA
ENDBRANCH   1  14
BRANCH   9  17
ATOM     17  C   UNL     1     -31.390 -12.437  15.291  0.00  0.00    +0.107 C 
BRANCH  17  18
ATOM     18  C   UNL     1     -32.404 -12.189  14.181  0.00  0.00    -0.009 A 
ATOM     19  C   UNL     1     -32.288 -12.869  12.957  0.00  0.00    +0.008 A 
ATOM     20  C   UNL     1     -33.220 -12.657  11.941  0.00  0.00    +0.020 A 
ATOM     21  C   UNL     1     -34.269 -11.763  12.153  0.00  0.00    +0.111 A 
ATOM     22  N   UNL     1     -34.375 -11.109  13.339  0.00  0.00    -0.263 NA
ATOM     23  C   UNL     1     -33.480 -11.298  14.345  0.00  0.00    +0.116 A 
ENDBRANCH  17  18
BRANCH  17  24
ATOM     24  C   UNL     1     -31.097 -13.926  15.627  0.00  0.00    +0.014 C 
ATOM     25  C   UNL     1     -30.184 -14.759  14.730  0.00  0.00    +0.006 C 
ATOM     26  C   UNL     1     -29.661 -14.212  16.047  0.00  0.00    +0.006 C 
ENDBRANCH  17  24
ENDBRANCH   9  17
TORSDOF 4
ENDMDL
MODEL 4
REMARK VINA RESULT:    -3.834      3.323      6.179
REMARK INTER + INTRA:          -5.089
REMARK INTER:                  -4.575
REMARK INTRA:                  -0.514
REMARK UNBOUND:                -0.358
REMARK  Name = 
REMARK  5 active torsions:
REMARK  status: ('A' for Active; 'I' for Inactive)
REMARK    1  A    between atoms: C_1  and  S_2
REMARK    2  A    between atoms: S_2  and  C_5
REMARK    3  A    between atoms: N_13  and  C_14
REMARK    4  A    between atoms: C_14  and  C_15
REMARK    5  A    between atoms: C_14  and  C_21
REMARK                            x       y       z     vdW  Elec       q    Type
REMARK                         _______ _______ _______ _____ _____    ______ ____
ROOT
ATOM      1  C   UNL     1     -32.569  -7.394  19.444  0.00  0.00    +0.089 A 
ATOM      2  C   UNL     1     -33.879  -6.999  19.149  0.00  0.00    +0.029 A 
ATOM      3  C   UNL     1     -34.708  -7.824  18.389  0.00  0.00    +0.030 A 
ATOM      4  C   UNL     1     -34.235  -9.050  17.911  0.00  0.00    +0.076 A 
ATOM      5  N   UNL     1     -35.060  -9.856  17.196  0.00  0.00    -0.235 NA
ATOM      6  C   UNL     1     -34.636 -11.056  16.733  0.00  0.00    +0.223 A 
ATOM      7  N   UNL     1     -33.365 -11.466  16.971  0.00  0.00    -0.220 NA
ATOM      8  C   UNL     1     -32.481 -10.707  17.675  0.00  0.00    +0.130 A 
ATOM      9  N   UNL     1     -31.126 -11.175  17.854  0.00  0.00    -0.321 N 
ATOM     10  C   UNL     1     -32.908  -9.458  18.186  0.00  0.00    +0.042 A 
ATOM     11  C   UNL     1     -32.088  -8.625  18.975  0.00  0.00    +0.040 A 
ATOM     12  H   UNL     1     -30.360 -10.469  17.925  0.00  0.00    +0.148 HD
ENDROOT
BRANCH   1  14
ATOM     13  C   UNL     1     -32.260  -6.199  22.055  0.00  0.00    +0.200 C 
ATOM     14  S   UNL     1     -31.539  -6.369  20.439  0.00  0.00    -0.006 S 
ATOM     15  O   UNL     1     -30.174  -6.987  20.558  0.00  0.00    -0.170 OA
ATOM     16  O   UNL     1     -31.400  -5.012  19.806  0.00  0.00    -0.170 OA
ENDBRANCH   1  14
BRANCH   9  17
ATOM     17  C   UNL     1     -30.687 -12.577  17.766  0.00  0.00    +0.107 C 
BRANCH  17  18
ATOM     18  C   UNL     1     -29.783 -12.924  18.942  0.00  0.00    -0.009 A 
ATOM     19  C   UNL     1     -28.386 -12.864  18.797  0.00  0.00    +0.008 A 
ATOM     20  C   UNL     1     -27.552 -13.168  19.873  0.00  0.00    +0.020 A 
ATOM     21  C   UNL     1     -28.119 -13.532  21.095  0.00  0.00    +0.111 A 
ATOM     22  N   UNL     1     -29.470 -13.588  21.227  0.00  0.00    -0.263 NA
ATOM     23  C   UNL     1     -30.305 -13.297  20.194  0.00  0.00    +0.116 A 
ENDBRANCH  17  18
BRANCH  17  24
ATOM     24  C   UNL     1     -30.134 -12.923  16.355  0.00  0.00    +0.014 C 
ATOM     25  C   UNL     1     -30.067 -14.374  15.883  0.00  0.00    +0.006 C 
ATOM     26  C   UNL     1     -31.174 -13.463  15.380  0.00  0.00    +0.006 C 
ENDBRANCH  17  24
ENDBRANCH   9  17
TORSDOF 4
ENDMDL
MODEL 5
REMARK VINA RESULT:    -3.752      3.332      6.429
REMARK INTER + INTRA:          -4.988
REMARK INTER:                  -4.129
REMARK INTRA:                  -0.859
REMARK UNBOUND:                -0.358
REMARK  Name = 
REMARK  5 active torsions:
REMARK  status: ('A' for Active; 'I' for Inactive)
REMARK    1  A    between atoms: C_1  and  S_2
REMARK    2  A    between atoms: S_2  and  C_5
REMARK    3  A    between atoms: N_13  and  C_14
REMARK    4  A    between atoms: C_14  and  C_15
REMARK    5  A    between atoms: C_14  and  C_21
REMARK                            x       y       z     vdW  Elec       q    Type
REMARK                         _______ _______ _______ _____ _____    ______ ____
ROOT
ATOM      1  C   UNL     1     -33.857 -10.876  14.342  0.00  0.00    +0.089 A 
ATOM      2  C   UNL     1     -34.666  -9.832  13.878  0.00  0.00    +0.029 A 
ATOM      3  C   UNL     1     -34.960  -8.749  14.707  0.00  0.00    +0.030 A 
ATOM      4  C   UNL     1     -34.453  -8.701  16.010  0.00  0.00    +0.076 A 
ATOM      5  N   UNL     1     -34.725  -7.629  16.796  0.00  0.00    -0.235 NA
ATOM      6  C   UNL     1     -34.236  -7.545  18.056  0.00  0.00    +0.223 A 
ATOM      7  N   UNL     1     -33.471  -8.548  18.556  0.00  0.00    -0.220 NA
ATOM      8  C   UNL     1     -33.164  -9.656  17.827  0.00  0.00    +0.130 A 
ATOM      9  N   UNL     1     -32.385 -10.712  18.431  0.00  0.00    -0.321 N 
ATOM     10  C   UNL     1     -33.647  -9.755  16.500  0.00  0.00    +0.042 A 
ATOM     11  C   UNL     1     -33.338 -10.832  15.645  0.00  0.00    +0.040 A 
ATOM     12  H   UNL     1     -32.555 -11.695  18.121  0.00  0.00    +0.148 HD
ENDROOT
BRANCH   1  14
ATOM     13  C   UNL     1     -32.134 -13.170  14.005  0.00  0.00    +0.200 C 
ATOM     14  S   UNL     1     -33.452 -12.221  13.280  0.00  0.00    -0.006 S 
ATOM     15  O   UNL     1     -34.659 -13.097  13.090  0.00  0.00    -0.170 OA
ATOM     16  O   UNL     1     -33.017 -11.702  11.938  0.00  0.00    -0.170 OA
ENDBRANCH   1  14
BRANCH   9  17
ATOM     17  C   UNL     1     -31.489 -10.560  19.587  0.00  0.00    +0.107 C 
BRANCH  17  18
ATOM     18  C   UNL     1     -30.064 -10.941  19.208  0.00  0.00    -0.009 A 
ATOM     19  C   UNL     1     -29.414 -11.992  19.878  0.00  0.00    +0.008 A 
ATOM     20  C   UNL     1     -28.114 -12.355  19.527  0.00  0.00    +0.020 A 
ATOM     21  C   UNL     1     -27.465 -11.664  18.503  0.00  0.00    +0.111 A 
ATOM     22  N   UNL     1     -28.099 -10.650  17.860  0.00  0.00    -0.263 NA
ATOM     23  C   UNL     1     -29.366 -10.276  18.183  0.00  0.00    +0.116 A 
ENDBRANCH  17  18
BRANCH  17  24
ATOM     24  C   UNL     1     -32.063 -11.246  20.859  0.00  0.00    +0.014 C 
ATOM     25  C   UNL     1     -32.497 -10.412  22.062  0.00  0.00    +0.006 C 
ATOM     26  C   UNL     1     -33.541 -10.977  21.115  0.00  0.00    +0.006 C 
ENDBRANCH  17  24
ENDBRANCH   9  17
TORSDOF 4
ENDMDL
MODEL 6
REMARK VINA RESULT:    -3.539      3.463      7.492
REMARK INTER + INTRA:          -4.725
REMARK INTER:                  -4.221
REMARK INTRA:                  -0.504
REMARK UNBOUND:                -0.358
REMARK  Name = 
REMARK  5 active torsions:
REMARK  status: ('A' for Active; 'I' for Inactive)
REMARK    1  A    between atoms: C_1  and  S_2
REMARK    2  A    between atoms: S_2  and  C_5
REMARK    3  A    between atoms: N_13  and  C_14
REMARK    4  A    between atoms: C_14  and  C_15
REMARK    5  A    between atoms: C_14  and  C_21
REMARK                            x       y       z     vdW  Elec       q    Type
REMARK                         _______ _______ _______ _____ _____    ______ ____
ROOT
ATOM      1  C   UNL     1     -32.778 -11.808  14.086  0.00  0.00    +0.089 A 
ATOM      2  C   UNL     1     -32.485 -12.697  13.046  0.00  0.00    +0.029 A 
ATOM      3  C   UNL     1     -31.425 -13.595  13.167  0.00  0.00    +0.030 A 
ATOM      4  C   UNL     1     -30.643 -13.610  14.327  0.00  0.00    +0.076 A 
ATOM      5  N   UNL     1     -29.631 -14.507  14.442  0.00  0.00    -0.235 NA
ATOM      6  C   UNL     1     -28.866 -14.556  15.559  0.00  0.00    +0.223 A 
ATOM      7  N   UNL     1     -29.097 -13.694  16.580  0.00  0.00    -0.220 NA
ATOM      8  C   UNL     1     -30.090 -12.763  16.530  0.00  0.00    +0.130 A 
ATOM      9  N   UNL     1     -30.256 -11.840  17.628  0.00  0.00    -0.321 N 
ATOM     10  C   UNL     1     -30.915 -12.707  15.381  0.00  0.00    +0.042 A 
ATOM     11  C   UNL     1     -32.004 -11.820  15.256  0.00  0.00    +0.040 A 
ATOM     12  H   UNL     1     -30.621 -10.883  17.423  0.00  0.00    +0.148 HD
ENDROOT
BRANCH   1  14
ATOM     13  C   UNL     1     -35.030 -11.048  12.445  0.00  0.00    +0.200 C 
ATOM     14  S   UNL     1     -34.144 -10.704  13.948  0.00  0.00    -0.006 S 
ATOM     15  O   UNL     1     -35.060 -10.882  15.126  0.00  0.00    -0.170 OA
ATOM     16  O   UNL     1     -33.655  -9.283  13.928  0.00  0.00    -0.170 OA
ENDBRANCH   1  14
BRANCH   9  17
ATOM     17  C   UNL     1     -29.784 -12.055  19.005  0.00  0.00    +0.107 C 
BRANCH  17  18
ATOM     18  C   UNL     1     -30.879 -11.699  20.002  0.00  0.00    -0.009 A 
ATOM     19  C   UNL     1     -30.581 -10.903  21.121  0.00  0.00    +0.008 A 
ATOM     20  C   UNL     1     -31.582 -10.563  22.032  0.00  0.00    +0.020 A 
ATOM     21  C   UNL     1     -32.882 -11.021  21.819  0.00  0.00    +0.111 A 
ATOM     22  N   UNL     1     -33.163 -11.790  20.736  0.00  0.00    -0.263 NA
ATOM     23  C   UNL     1     -32.206 -12.136  19.834  0.00  0.00    +0.116 A 
ENDBRANCH  17  18
BRANCH  17  24
ATOM     24  C   UNL     1     -28.397 -11.397  19.252  0.00  0.00    +0.014 C 
ATOM     25  C   UNL     1     -27.112 -12.195  19.043  0.00  0.00    +0.006 C 
ATOM     26  C   UNL     1     -27.559 -11.190  17.996  0.00  0.00    +0.006 C 
ENDBRANCH  17  24
ENDBRANCH   9  17
TORSDOF 4
ENDMDL
MODEL 7
REMARK VINA RESULT:    -3.473      2.899      6.341
REMARK INTER + INTRA:          -4.643
REMARK INTER:                  -4.660
REMARK INTRA:                   0.017
REMARK UNBOUND:                -0.358
REMARK  Name = 
REMARK  5 active torsions:
REMARK  status: ('A' for Active; 'I' for Inactive)
REMARK    1  A    between atoms: C_1  and  S_2
REMARK    2  A    between atoms: S_2  and  C_5
REMARK    3  A    between atoms: N_13  and  C_14
REMARK    4  A    between atoms: C_14  and  C_15
REMARK    5  A    between atoms: C_14  and  C_21
REMARK                            x       y       z     vdW  Elec       q    Type
REMARK                         _______ _______ _______ _____ _____    ______ ____
ROOT
ATOM      1  C   UNL     1     -31.995 -13.127  13.655  0.00  0.00    +0.089 A 
ATOM      2  C   UNL     1     -33.034 -12.645  12.852  0.00  0.00    +0.029 A 
ATOM      3  C   UNL     1     -34.024 -11.828  13.398  0.00  0.00    +0.030 A 
ATOM      4  C   UNL     1     -33.989 -11.490  14.755  0.00  0.00    +0.076 A 
ATOM      5  N   UNL     1     -34.943 -10.672  15.268  0.00  0.00    -0.235 NA
ATOM      6  C   UNL     1     -34.927 -10.314  16.574  0.00  0.00    +0.223 A 
ATOM      7  N   UNL     1     -33.955 -10.782  17.395  0.00  0.00    -0.220 NA
ATOM      8  C   UNL     1     -32.969 -11.610  16.951  0.00  0.00    +0.130 A 
ATOM      9  N   UNL     1     -31.989 -12.114  17.884  0.00  0.00    -0.321 N 
ATOM     10  C   UNL     1     -32.954 -11.981  15.585  0.00  0.00    +0.042 A 
ATOM     11  C   UNL     1     -31.947 -12.787  15.015  0.00  0.00    +0.040 A 
ATOM     12  H   UNL     1     -31.579 -13.059  17.713  0.00  0.00    +0.148 HD
ENDROOT
BRANCH   1  14
ATOM     13  C   UNL     1     -29.931 -15.061  14.240  0.00  0.00    +0.200 C 
ATOM     14  S   UNL     1     -30.723 -14.124  12.954  0.00  0.00    -0.006 S 
ATOM     15  O   UNL     1     -31.316 -15.060  11.939  0.00  0.00    -0.170 OA
ATOM     16  O   UNL     1     -29.707 -13.252  12.270  0.00  0.00    -0.170 OA
ENDBRANCH   1  14
BRANCH   9  17
ATOM     17  C   UNL     1     -31.637 -11.496  19.172  0.00  0.00    +0.107 C 
BRANCH  17  18
ATOM     18  C   UNL     1     -30.238 -11.921  19.599  0.00  0.00    -0.009 A 
ATOM     19  C   UNL     1     -30.059 -13.088  20.362  0.00  0.00    +0.008 A 
ATOM     20  C   UNL     1     -28.780 -13.490  20.746  0.00  0.00    +0.020 A 
ATOM     21  C   UNL     1     -27.679 -12.724  20.364  0.00  0.00    +0.111 A 
ATOM     22  N   UNL     1     -27.859 -11.597  19.626  0.00  0.00    -0.263 NA
ATOM     23  C   UNL     1     -29.096 -11.183  19.240  0.00  0.00    +0.116 A 
ENDBRANCH  17  18
BRANCH  17  24
ATOM     24  C   UNL     1     -32.759 -11.682  20.231  0.00  0.00    +0.014 C 
ATOM     25  C   UNL     1     -32.666 -10.993  21.590  0.00  0.00    +0.006 C 
ATOM     26  C   UNL     1     -33.579 -10.429  20.516  0.00  0.00    +0.006 C 
ENDBRANCH  17  24
ENDBRANCH   9  17
TORSDOF 4
ENDMDL
MODEL 8
REMARK VINA RESULT:    -3.069      3.819      5.692
REMARK INTER + INTRA:          -4.145
REMARK INTER:                  -3.651
REMARK INTRA:                  -0.494
REMARK UNBOUND:                -0.358
REMARK  Name = 
REMARK  5 active torsions:
REMARK  status: ('A' for Active; 'I' for Inactive)
REMARK    1  A    between atoms: C_1  and  S_2
REMARK    2  A    between atoms: S_2  and  C_5
REMARK    3  A    between atoms: N_13  and  C_14
REMARK    4  A    between atoms: C_14  and  C_15
REMARK    5  A    between atoms: C_14  and  C_21
REMARK                            x       y       z     vdW  Elec       q    Type
REMARK                         _______ _______ _______ _____ _____    ______ ____
ROOT
ATOM      1  C   UNL     1     -33.863  -7.326  19.928  0.00  0.00    +0.089 A 
ATOM      2  C   UNL     1     -34.027  -7.566  21.297  0.00  0.00    +0.029 A 
ATOM      3  C   UNL     1     -33.747  -8.825  21.828  0.00  0.00    +0.030 A 
ATOM      4  C   UNL     1     -33.305  -9.859  20.995  0.00  0.00    +0.076 A 
ATOM      5  N   UNL     1     -33.010 -11.071  21.529  0.00  0.00    -0.235 NA
ATOM      6  C   UNL     1     -32.566 -12.087  20.751  0.00  0.00    +0.223 A 
ATOM      7  N   UNL     1     -32.420 -11.906  19.414  0.00  0.00    -0.220 NA
ATOM      8  C   UNL     1     -32.704 -10.719  18.810  0.00  0.00    +0.130 A 
ATOM      9  N   UNL     1     -32.575 -10.602  17.376  0.00  0.00    -0.321 N 
ATOM     10  C   UNL     1     -33.149  -9.637  19.607  0.00  0.00    +0.042 A 
ATOM     11  C   UNL     1     -33.414  -8.354  19.087  0.00  0.00    +0.040 A 
ATOM     12  H   UNL     1     -33.213  -9.947  16.871  0.00  0.00    +0.148 HD
ENDROOT
BRANCH   1  14
ATOM     13  C   UNL     1     -35.025  -5.882  17.713  0.00  0.00    +0.200 C 
ATOM     14  S   UNL     1     -34.177  -5.723  19.268  0.00  0.00    -0.006 S 
ATOM     15  O   UNL     1     -35.026  -4.938  20.227  0.00  0.00    -0.170 OA
ATOM     16  O   UNL     1     -32.881  -4.991  19.060  0.00  0.00    -0.170 OA
ENDBRANCH   1  14
BRANCH   9  17
ATOM     17  C   UNL     1     -31.743 -11.461  16.519  0.00  0.00    +0.107 C 
BRANCH  17  18
ATOM     18  C   UNL     1     -30.359 -11.638  17.130  0.00  0.00    -0.009 A 
ATOM     19  C   UNL     1     -29.635 -10.516  17.570  0.00  0.00    +0.008 A 
ATOM     20  C   UNL     1     -28.373 -10.672  18.142  0.00  0.00    +0.020 A 
ATOM     21  C   UNL     1     -27.836 -11.953  18.274  0.00  0.00    +0.111 A 
ATOM     22  N   UNL     1     -28.541 -13.032  17.846  0.00  0.00    -0.263 NA
ATOM     23  C   UNL     1     -29.774 -12.907  17.285  0.00  0.00    +0.116 A 
ENDBRANCH  17  18
BRANCH  17  24
ATOM     24  C   UNL     1     -31.780 -11.006  15.033  0.00  0.00    +0.014 C 
ATOM     25  C   UNL     1     -32.123 -11.999  13.925  0.00  0.00    +0.006 C 
ATOM     26  C   UNL     1     -33.167 -11.004  14.402  0.00  0.00    +0.006 C 
ENDBRANCH  17  24
ENDBRANCH   9  17
TORSDOF 4
ENDMDL
