MODEL 1
REMARK VINA RESULT:    -5.210      0.000      0.000
REMARK INTER + INTRA:          -8.176
REMARK INTER:                  -7.038
REMARK INTRA:                  -1.138
REMARK UNBOUND:                -1.138
REMARK  Name = 
REMARK  7 active torsions:
REMARK  status: ('A' for Active; 'I' for Inactive)
REMARK    1  A    between atoms: C_1  and  S_2
REMARK    2  A    between atoms: S_2  and  C_5
REMARK    3  A    between atoms: C_10  and  C_11
REMARK    4  A    between atoms: N_13  and  C_14
REMARK    5  A    between atoms: C_18  and  O_20
REMARK    6  A    between atoms: O_20  and  C_21
REMARK    7  A    between atoms: C_21  and  C_22
REMARK                            x       y       z     vdW  Elec       q    Type
REMARK                         _______ _______ _______ _____ _____    ______ ____
ROOT
ATOM      1  C   UNL     1     -32.600 -11.422  15.916  0.00  0.00    +0.250 C 
ATOM      2  O   UNL     1     -33.474 -11.599  16.807  0.00  0.00    -0.270 OA
ATOM      3  N   UNL     1     -31.462 -10.586  16.172  0.00  0.00    -0.281 N 
ATOM      4  H   UNL     1     -31.022 -10.118  15.347  0.00  0.00    +0.155 HD
ENDROOT
BRANCH   1  10
ATOM      5  C   UNL     1     -32.004 -13.016  14.033  0.00  0.00    +0.100 A 
ATOM      6  C   UNL     1     -32.228 -13.445  12.714  0.00  0.00    +0.028 A 
ATOM      7  C   UNL     1     -33.253 -12.887  11.947  0.00  0.00    +0.002 A 
ATOM      8  C   UNL     1     -34.072 -11.898  12.489  0.00  0.00    +0.001 A 
ATOM      9  C   UNL     1     -33.857 -11.450  13.792  0.00  0.00    +0.015 A 
ATOM     10  C   UNL     1     -32.816 -11.984  14.571  0.00  0.00    +0.062 A 
BRANCH   5  12
ATOM     11  C   UNL     1     -29.922 -15.062  13.961  0.00  0.00    +0.200 C 
ATOM     12  S   UNL     1     -30.757 -13.859  14.972  0.00  0.00    -0.005 S 
ATOM     13  O   UNL     1     -31.414 -14.573  16.122  0.00  0.00    -0.170 OA
ATOM     14  O   UNL     1     -29.760 -12.889  15.538  0.00  0.00    -0.170 OA
ENDBRANCH   5  12
ENDBRANCH   1  10
BRANCH   3  15
ATOM     15  C   UNL     1     -30.976 -10.250  17.483  0.00  0.00    +0.037 A 
ATOM     16  C   UNL     1     -31.437  -9.112  18.170  0.00  0.00    +0.023 A 
ATOM     17  C   UNL     1     -30.966  -8.826  19.453  0.00  0.00    +0.005 A 
ATOM     18  C   UNL     1     -30.044  -9.675  20.071  0.00  0.00    +0.046 A 
ATOM     19  C   UNL     1     -29.593 -10.833  19.408  0.00  0.00    +0.122 A 
ATOM     20  C   UNL     1     -30.067 -11.109  18.119  0.00  0.00    +0.069 A 
BRANCH  19  21
ATOM     21  O   UNL     1     -28.676 -11.729  19.981  0.00  0.00    -0.489 OA
BRANCH  21  22
ATOM     22  C   UNL     1     -28.988 -13.029  20.483  0.00  0.00    +0.260 C 
BRANCH  22  23
ATOM     23  C   UNL     1     -27.762 -13.949  20.409  0.00  0.00    +0.156 C 
ATOM     24  C   UNL     1     -27.225 -14.284  21.791  0.00  0.00    +0.037 C 
ATOM     25  C   UNL     1     -25.763 -14.465  21.534  0.00  0.00    +0.031 C 
ATOM     26  C   UNL     1     -25.516 -13.591  20.319  0.00  0.00    +0.160 C 
ATOM     27  O   UNL     1     -26.738 -13.331  19.664  0.00  0.00    -0.373 OA
ENDBRANCH  22  23
ENDBRANCH  21  22
ENDBRANCH  19  21
ENDBRANCH   3  15
TORSDOF 6
ENDMDL
MODEL 2
REMARK VINA RESULT:    -4.959      1.857      2.390
REMARK INTER + INTRA:          -7.837
REMARK INTER:                  -6.127
REMARK INTRA:                  -1.710
REMARK UNBOUND:                -1.138
REMARK  Name = 
REMARK  7 active torsions:
REMARK  status: ('A' for Active; 'I' for Inactive)
REMARK    1  A    between atoms: C_1  and  S_2
REMARK    2  A    between atoms: S_2  and  C_5
REMARK    3  A    between atoms: C_10  and  C_11
REMARK    4  A    between atoms: N_13  and  C_14
REMARK    5  A    between atoms: C_18  and  O_20
REMARK    6  A    between atoms: O_20  and  C_21
REMARK    7  A    between atoms: C_21  and  C_22
REMARK                            x       y       z     vdW  Elec       q    Type
REMARK                         _______ _______ _______ _____ _____    ______ ____
ROOT
ATOM      1  C   UNL     1     -33.245 -11.348  15.579  0.00  0.00    +0.250 C 
ATOM      2  O   UNL     1     -34.199 -11.695  16.326  0.00  0.00    -0.270 OA
ATOM      3  N   UNL     1     -32.512 -10.145  15.849  0.00  0.00    -0.281 N 
ATOM      4  H   UNL     1     -32.064  -9.668  15.033  0.00  0.00    +0.155 HD
ENDROOT
BRANCH   1  10
ATOM      5  C   UNL     1     -31.854 -13.005  14.249  0.00  0.00    +0.100 A 
ATOM      6  C   UNL     1     -31.613 -13.652  13.026  0.00  0.00    +0.028 A 
ATOM      7  C   UNL     1     -32.466 -13.461  11.938  0.00  0.00    +0.002 A 
ATOM      8  C   UNL     1     -33.575 -12.625  12.057  0.00  0.00    +0.001 A 
ATOM      9  C   UNL     1     -33.824 -11.963  13.260  0.00  0.00    +0.015 A 
ATOM     10  C   UNL     1     -32.963 -12.126  14.359  0.00  0.00    +0.062 A 
BRANCH   5  12
ATOM     11  C   UNL     1     -29.486 -14.492  15.091  0.00  0.00    +0.200 C 
ATOM     12  S   UNL     1     -30.788 -13.395  15.613  0.00  0.00    -0.005 S 
ATOM     13  O   UNL     1     -31.594 -14.082  16.680  0.00  0.00    -0.170 OA
ATOM     14  O   UNL     1     -30.196 -12.150  16.208  0.00  0.00    -0.170 OA
ENDBRANCH   5  12
ENDBRANCH   1  10
BRANCH   3  15
ATOM     15  C   UNL     1     -32.467  -9.488  17.128  0.00  0.00    +0.037 A 
ATOM     16  C   UNL     1     -33.522  -8.672  17.575  0.00  0.00    +0.023 A 
ATOM     17  C   UNL     1     -33.461  -8.069  18.832  0.00  0.00    +0.005 A 
ATOM     18  C   UNL     1     -32.358  -8.281  19.663  0.00  0.00    +0.046 A 
ATOM     19  C   UNL     1     -31.305  -9.116  19.242  0.00  0.00    +0.122 A 
ATOM     20  C   UNL     1     -31.373  -9.714  17.977  0.00  0.00    +0.069 A 
BRANCH  19  21
ATOM     21  O   UNL     1     -30.175  -9.376  20.035  0.00  0.00    -0.489 OA
BRANCH  21  22
ATOM     22  C   UNL     1     -30.189  -9.998  21.321  0.00  0.00    +0.260 C 
BRANCH  22  23
ATOM     23  C   UNL     1     -29.868 -11.494  21.206  0.00  0.00    +0.156 C 
ATOM     24  C   UNL     1     -28.796 -11.761  20.162  0.00  0.00    +0.037 C 
ATOM     25  C   UNL     1     -29.162 -13.123  19.665  0.00  0.00    +0.031 C 
ATOM     26  C   UNL     1     -30.658 -13.187  19.906  0.00  0.00    +0.160 C 
ATOM     27  O   UNL     1     -31.030 -12.211  20.855  0.00  0.00    -0.373 OA
ENDBRANCH  22  23
ENDBRANCH  21  22
ENDBRANCH  19  21
ENDBRANCH   3  15
TORSDOF 6
ENDMDL
MODEL 3
REMARK VINA RESULT:    -4.801      1.982      3.001
REMARK INTER + INTRA:          -7.624
REMARK INTER:                  -6.577
REMARK INTRA:                  -1.046
REMARK UNBOUND:                -1.138
REMARK  Name = 
REMARK  7 active torsions:
REMARK  status: ('A' for Active; 'I' for Inactive)
REMARK    1  A    between atoms: C_1  and  S_2
REMARK    2  A    between atoms: S_2  and  C_5
REMARK    3  A    between atoms: C_10  and  C_11
REMARK    4  A    between atoms: N_13  and  C_14
REMARK    5  A    between atoms: C_18  and  O_20
REMARK    6  A    between atoms: O_20  and  C_21
REMARK    7  A    between atoms: C_21  and  C_22
REMARK                            x       y       z     vdW  Elec       q    Type
REMARK                         _______ _______ _______ _____ _____    ______ ____
ROOT
ATOM      1  C   UNL     1     -31.407 -12.297  15.933  0.00  0.00    +0.250 C 
ATOM      2  O   UNL     1     -30.285 -11.766  16.154  0.00  0.00    -0.270 OA
ATOM      3  N   UNL     1     -32.249 -12.696  17.024  0.00  0.00    -0.281 N 
ATOM      4  H   UNL     1     -32.913 -13.484  16.849  0.00  0.00    +0.155 HD
ENDROOT
BRANCH   1  10
ATOM      5  C   UNL     1     -32.962 -12.079  13.938  0.00  0.00    +0.100 A 
ATOM      6  C   UNL     1     -33.303 -12.488  12.638  0.00  0.00    +0.028 A 
ATOM      7  C   UNL     1     -32.495 -13.386  11.938  0.00  0.00    +0.002 A 
ATOM      8  C   UNL     1     -31.332 -13.883  12.525  0.00  0.00    +0.001 A 
ATOM      9  C   UNL     1     -30.983 -13.498  13.819  0.00  0.00    +0.015 A 
ATOM     10  C   UNL     1     -31.797 -12.613  14.547  0.00  0.00    +0.062 A 
BRANCH   5  12
ATOM     11  C   UNL     1     -35.041 -10.075  13.505  0.00  0.00    +0.200 C 
ATOM     12  S   UNL     1     -33.982 -10.848  14.708  0.00  0.00    -0.005 S 
ATOM     13  O   UNL     1     -33.098  -9.794  15.316  0.00  0.00    -0.170 OA
ATOM     14  O   UNL     1     -34.812 -11.447  15.808  0.00  0.00    -0.170 OA
ENDBRANCH   5  12
ENDBRANCH   1  10
BRANCH   3  15
ATOM     15  C   UNL     1     -32.147 -12.179  18.363  0.00  0.00    +0.037 A 
ATOM     16  C   UNL     1     -33.094 -11.275  18.877  0.00  0.00    +0.023 A 
ATOM     17  C   UNL     1     -32.984 -10.811  20.189  0.00  0.00    +0.005 A 
ATOM     18  C   UNL     1     -31.939 -11.249  21.006  0.00  0.00    +0.046 A 
ATOM     19  C   UNL     1     -30.997 -12.174  20.515  0.00  0.00    +0.122 A 
ATOM     20  C   UNL     1     -31.113 -12.631  19.197  0.00  0.00    +0.069 A 
BRANCH  19  21
ATOM     21  O   UNL     1     -29.931 -12.659  21.291  0.00  0.00    -0.489 OA
BRANCH  21  22
ATOM     22  C   UNL     1     -29.119 -13.791  20.973  0.00  0.00    +0.260 C 
BRANCH  22  23
ATOM     23  C   UNL     1     -27.644 -13.507  21.284  0.00  0.00    +0.156 C 
ATOM     24  C   UNL     1     -26.865 -13.138  20.032  0.00  0.00    +0.037 C 
ATOM     25  C   UNL     1     -25.493 -13.644  20.344  0.00  0.00    +0.031 C 
ATOM     26  C   UNL     1     -25.758 -14.781  21.313  0.00  0.00    +0.160 C 
ATOM     27  O   UNL     1     -27.047 -14.642  21.870  0.00  0.00    -0.373 OA
ENDBRANCH  22  23
ENDBRANCH  21  22
ENDBRANCH  19  21
ENDBRANCH   3  15
TORSDOF 6
ENDMDL
MODEL 4
REMARK VINA RESULT:    -4.638      2.775      4.931
REMARK INTER + INTRA:          -7.404
REMARK INTER:                  -5.902
REMARK INTRA:                  -1.502
REMARK UNBOUND:                -1.138
REMARK  Name = 
REMARK  7 active torsions:
REMARK  status: ('A' for Active; 'I' for Inactive)
REMARK    1  A    between atoms: C_1  and  S_2
REMARK    2  A    between atoms: S_2  and  C_5
REMARK    3  A    between atoms: C_10  and  C_11
REMARK    4  A    between atoms: N_13  and  C_14
REMARK    5  A    between atoms: C_18  and  O_20
REMARK    6  A    between atoms: O_20  and  C_21
REMARK    7  A    between atoms: C_21  and  C_22
REMARK                            x       y       z     vdW  Elec       q    Type
REMARK                         _______ _______ _______ _____ _____    ______ ____
ROOT
ATOM      1  C   UNL     1     -31.595 -12.190  15.522  0.00  0.00    +0.250 C 
ATOM      2  O   UNL     1     -30.645 -11.366  15.612  0.00  0.00    -0.270 OA
ATOM      3  N   UNL     1     -31.821 -13.154  16.560  0.00  0.00    -0.281 N 
ATOM      4  H   UNL     1     -32.284 -14.050  16.284  0.00  0.00    +0.155 HD
ENDROOT
BRANCH   1  10
ATOM      5  C   UNL     1     -33.553 -11.427  14.097  0.00  0.00    +0.100 A 
ATOM      6  C   UNL     1     -34.308 -11.581  12.922  0.00  0.00    +0.028 A 
ATOM      7  C   UNL     1     -33.918 -12.492  11.938  0.00  0.00    +0.002 A 
ATOM      8  C   UNL     1     -32.766 -13.257  12.111  0.00  0.00    +0.001 A 
ATOM      9  C   UNL     1     -32.010 -13.128  13.276  0.00  0.00    +0.015 A 
ATOM     10  C   UNL     1     -32.400 -12.232  14.288  0.00  0.00    +0.062 A 
BRANCH   5  12
ATOM     11  C   UNL     1     -34.897 -10.887  16.633  0.00  0.00    +0.200 C 
ATOM     12  S   UNL     1     -34.056 -10.167  15.240  0.00  0.00    -0.005 S 
ATOM     13  O   UNL     1     -35.001  -9.227  14.543  0.00  0.00    -0.170 OA
ATOM     14  O   UNL     1     -32.876  -9.368  15.716  0.00  0.00    -0.170 OA
ENDBRANCH   5  12
ENDBRANCH   1  10
BRANCH   3  15
ATOM     15  C   UNL     1     -31.340 -13.026  17.909  0.00  0.00    +0.037 A 
ATOM     16  C   UNL     1     -30.075 -13.511  18.289  0.00  0.00    +0.023 A 
ATOM     17  C   UNL     1     -29.624 -13.349  19.600  0.00  0.00    +0.005 A 
ATOM     18  C   UNL     1     -30.419 -12.693  20.543  0.00  0.00    +0.046 A 
ATOM     19  C   UNL     1     -31.677 -12.178  20.173  0.00  0.00    +0.122 A 
ATOM     20  C   UNL     1     -32.123 -12.349  18.856  0.00  0.00    +0.069 A 
BRANCH  19  21
ATOM     21  O   UNL     1     -32.517 -11.500  21.072  0.00  0.00    -0.489 OA
BRANCH  21  22
ATOM     22  C   UNL     1     -32.146 -10.371  21.864  0.00  0.00    +0.260 C 
BRANCH  22  23
ATOM     23  C   UNL     1     -32.472  -9.063  21.131  0.00  0.00    +0.156 C 
ATOM     24  C   UNL     1     -33.824  -9.126  20.439  0.00  0.00    +0.037 C 
ATOM     25  C   UNL     1     -33.627  -8.225  19.262  0.00  0.00    +0.031 C 
ATOM     26  C   UNL     1     -32.134  -8.310  19.009  0.00  0.00    +0.160 C 
ATOM     27  O   UNL     1     -31.482  -8.791  20.164  0.00  0.00    -0.373 OA
ENDBRANCH  22  23
ENDBRANCH  21  22
ENDBRANCH  19  21
ENDBRANCH   3  15
TORSDOF 6
ENDMDL
MODEL 5
REMARK VINA RESULT:    -4.423      3.272      6.878
REMARK INTER + INTRA:          -7.112
REMARK INTER:                  -5.969
REMARK INTRA:                  -1.143
REMARK UNBOUND:                -1.138
REMARK  Name = 
REMARK  7 active torsions:
REMARK  status: ('A' for Active; 'I' for Inactive)
REMARK    1  A    between atoms: C_1  and  S_2
REMARK    2  A    between atoms: S_2  and  C_5
REMARK    3  A    between atoms: C_10  and  C_11
REMARK    4  A    between atoms: N_13  and  C_14
REMARK    5  A    between atoms: C_18  and  O_20
REMARK    6  A    between atoms: O_20  and  C_21
REMARK    7  A    between atoms: C_21  and  C_22
REMARK                            x       y       z     vdW  Elec       q    Type
REMARK                         _______ _______ _______ _____ _____    ______ ____
ROOT
ATOM      1  C   UNL     1     -33.775  -9.725  17.193  0.00  0.00    +0.250 C 
ATOM      2  O   UNL     1     -34.412 -10.753  17.550  0.00  0.00    -0.270 OA
ATOM      3  N   UNL     1     -33.135  -9.677  15.909  0.00  0.00    -0.281 N 
ATOM      4  H   UNL     1     -32.297  -9.058  15.818  0.00  0.00    +0.155 HD
ENDROOT
BRANCH   1  10
ATOM      5  C   UNL     1     -32.425  -8.481  18.947  0.00  0.00    +0.100 A 
ATOM      6  C   UNL     1     -32.360  -7.441  19.889  0.00  0.00    +0.028 A 
ATOM      7  C   UNL     1     -33.413  -6.534  20.024  0.00  0.00    +0.002 A 
ATOM      8  C   UNL     1     -34.542  -6.650  19.216  0.00  0.00    +0.001 A 
ATOM      9  C   UNL     1     -34.632  -7.684  18.284  0.00  0.00    +0.015 A 
ATOM     10  C   UNL     1     -33.591  -8.619  18.150  0.00  0.00    +0.062 A 
BRANCH   5  12
ATOM     11  C   UNL     1     -31.297 -11.125  19.461  0.00  0.00    +0.200 C 
ATOM     12  S   UNL     1     -30.996  -9.516  18.762  0.00  0.00    -0.005 S 
ATOM     13  O   UNL     1     -29.841  -8.886  19.491  0.00  0.00    -0.170 OA
ATOM     14  O   UNL     1     -30.612  -9.653  17.316  0.00  0.00    -0.170 OA
ENDBRANCH   5  12
ENDBRANCH   1  10
BRANCH   3  15
ATOM     15  C   UNL     1     -33.484 -10.514  14.793  0.00  0.00    +0.037 A 
ATOM     16  C   UNL     1     -34.531 -10.174  13.916  0.00  0.00    +0.023 A 
ATOM     17  C   UNL     1     -34.830 -10.992  12.827  0.00  0.00    +0.005 A 
ATOM     18  C   UNL     1     -34.086 -12.150  12.589  0.00  0.00    +0.046 A 
ATOM     19  C   UNL     1     -33.018 -12.492  13.442  0.00  0.00    +0.122 A 
ATOM     20  C   UNL     1     -32.728 -11.667  14.535  0.00  0.00    +0.069 A 
BRANCH  19  21
ATOM     21  O   UNL     1     -32.227 -13.637  13.249  0.00  0.00    -0.489 OA
BRANCH  21  22
ATOM     22  C   UNL     1     -31.141 -13.751  12.328  0.00  0.00    +0.260 C 
BRANCH  22  23
ATOM     23  C   UNL     1     -30.119 -14.785  12.817  0.00  0.00    +0.156 C 
ATOM     24  C   UNL     1     -29.636 -14.478  14.225  0.00  0.00    +0.037 C 
ATOM     25  C   UNL     1     -28.241 -15.017  14.214  0.00  0.00    +0.031 C 
ATOM     26  C   UNL     1     -27.847 -14.920  12.753  0.00  0.00    +0.160 C 
ATOM     27  O   UNL     1     -29.004 -14.809  11.953  0.00  0.00    -0.373 OA
ENDBRANCH  22  23
ENDBRANCH  21  22
ENDBRANCH  19  21
ENDBRANCH   3  15
TORSDOF 6
ENDMDL
MODEL 6
REMARK VINA RESULT:    -4.416      2.207      7.882
REMARK INTER + INTRA:          -7.104
REMARK INTER:                  -5.670
REMARK INTRA:                  -1.434
REMARK UNBOUND:                -1.138
REMARK  Name = 
REMARK  7 active torsions:
REMARK  status: ('A' for Active; 'I' for Inactive)
REMARK    1  A    between atoms: C_1  and  S_2
REMARK    2  A    between atoms: S_2  and  C_5
REMARK    3  A    between atoms: C_10  and  C_11
REMARK    4  A    between atoms: N_13  and  C_14
REMARK    5  A    between atoms: C_18  and  O_20
REMARK    6  A    between atoms: O_20  and  C_21
REMARK    7  A    between atoms: C_21  and  C_22
REMARK                            x       y       z     vdW  Elec       q    Type
REMARK                         _______ _______ _______ _____ _____    ______ ____
ROOT
ATOM      1  C   UNL     1     -28.636 -12.937  18.089  0.00  0.00    +0.250 C 
ATOM      2  O   UNL     1     -28.144 -11.974  17.441  0.00  0.00    -0.270 OA
ATOM      3  N   UNL     1     -29.697 -13.723  17.528  0.00  0.00    -0.281 N 
ATOM      4  H   UNL     1     -30.352 -14.186  18.199  0.00  0.00    +0.155 HD
ENDROOT
BRANCH   1  10
ATOM      5  C   UNL     1     -28.908 -12.691  20.601  0.00  0.00    +0.100 A 
ATOM      6  C   UNL     1     -28.380 -12.898  21.886  0.00  0.00    +0.028 A 
ATOM      7  C   UNL     1     -27.184 -13.596  22.062  0.00  0.00    +0.002 A 
ATOM      8  C   UNL     1     -26.502 -14.103  20.957  0.00  0.00    +0.001 A 
ATOM      9  C   UNL     1     -27.003 -13.897  19.672  0.00  0.00    +0.015 A 
ATOM     10  C   UNL     1     -28.194 -13.176  19.475  0.00  0.00    +0.062 A 
BRANCH   5  12
ATOM     11  C   UNL     1     -30.318 -10.275  19.760  0.00  0.00    +0.200 C 
ATOM     12  S   UNL     1     -30.489 -11.895  20.478  0.00  0.00    -0.005 S 
ATOM     13  O   UNL     1     -31.069 -11.748  21.858  0.00  0.00    -0.170 OA
ATOM     14  O   UNL     1     -31.444 -12.716  19.659  0.00  0.00    -0.170 OA
ENDBRANCH   5  12
ENDBRANCH   1  10
BRANCH   3  15
ATOM     15  C   UNL     1     -29.994 -13.806  16.123  0.00  0.00    +0.037 A 
ATOM     16  C   UNL     1     -29.456 -14.825  15.316  0.00  0.00    +0.023 A 
ATOM     17  C   UNL     1     -29.783 -14.895  13.961  0.00  0.00    +0.005 A 
ATOM     18  C   UNL     1     -30.658 -13.963  13.397  0.00  0.00    +0.046 A 
ATOM     19  C   UNL     1     -31.226 -12.952  14.197  0.00  0.00    +0.122 A 
ATOM     20  C   UNL     1     -30.889 -12.887  15.555  0.00  0.00    +0.069 A 
BRANCH  19  21
ATOM     21  O   UNL     1     -32.119 -11.993  13.691  0.00  0.00    -0.489 OA
BRANCH  21  22
ATOM     22  C   UNL     1     -33.528 -12.170  13.535  0.00  0.00    +0.260 C 
BRANCH  22  23
ATOM     23  C   UNL     1     -34.300 -11.318  14.551  0.00  0.00    +0.156 C 
ATOM     24  C   UNL     1     -33.570 -10.023  14.868  0.00  0.00    +0.037 C 
ATOM     25  C   UNL     1     -33.981  -9.759  16.282  0.00  0.00    +0.031 C 
ATOM     26  C   UNL     1     -34.272 -11.147  16.821  0.00  0.00    +0.160 C 
ATOM     27  O   UNL     1     -34.481 -12.040  15.748  0.00  0.00    -0.373 OA
ENDBRANCH  22  23
ENDBRANCH  21  22
ENDBRANCH  19  21
ENDBRANCH   3  15
TORSDOF 6
ENDMDL
MODEL 7
REMARK VINA RESULT:    -4.304      2.322      7.769
REMARK INTER + INTRA:          -6.952
REMARK INTER:                  -5.475
REMARK INTRA:                  -1.477
REMARK UNBOUND:                -1.138
REMARK  Name = 
REMARK  7 active torsions:
REMARK  status: ('A' for Active; 'I' for Inactive)
REMARK    1  A    between atoms: C_1  and  S_2
REMARK    2  A    between atoms: S_2  and  C_5
REMARK    3  A    between atoms: C_10  and  C_11
REMARK    4  A    between atoms: N_13  and  C_14
REMARK    5  A    between atoms: C_18  and  O_20
REMARK    6  A    between atoms: O_20  and  C_21
REMARK    7  A    between atoms: C_21  and  C_22
REMARK                            x       y       z     vdW  Elec       q    Type
REMARK                         _______ _______ _______ _____ _____    ______ ____
ROOT
ATOM      1  C   UNL     1     -30.017 -13.625  17.965  0.00  0.00    +0.250 C 
ATOM      2  O   UNL     1     -30.767 -14.638  17.971  0.00  0.00    -0.270 OA
ATOM      3  N   UNL     1     -29.227 -13.313  16.809  0.00  0.00    -0.281 N 
ATOM      4  H   UNL     1     -28.341 -12.781  16.967  0.00  0.00    +0.155 HD
ENDROOT
BRANCH   1  10
ATOM      5  C   UNL     1     -30.291 -11.478  19.293  0.00  0.00    +0.100 A 
ATOM      6  C   UNL     1     -30.045 -10.767  20.479  0.00  0.00    +0.028 A 
ATOM      7  C   UNL     1     -29.418 -11.383  21.563  0.00  0.00    +0.002 A 
ATOM      8  C   UNL     1     -29.034 -12.720  21.480  0.00  0.00    +0.001 A 
ATOM      9  C   UNL     1     -29.258 -13.440  20.307  0.00  0.00    +0.015 A 
ATOM     10  C   UNL     1     -29.867 -12.829  19.197  0.00  0.00    +0.062 A 
BRANCH   5  12
ATOM     11  C   UNL     1     -31.689  -9.027  18.541  0.00  0.00    +0.200 C 
ATOM     12  S   UNL     1     -31.195 -10.652  18.009  0.00  0.00    -0.005 S 
ATOM     13  O   UNL     1     -32.432 -11.449  17.694  0.00  0.00    -0.170 OA
ATOM     14  O   UNL     1     -30.378 -10.550  16.753  0.00  0.00    -0.170 OA
ENDBRANCH   5  12
ENDBRANCH   1  10
BRANCH   3  15
ATOM     15  C   UNL     1     -29.503 -13.792  15.481  0.00  0.00    +0.037 A 
ATOM     16  C   UNL     1     -28.581 -14.591  14.779  0.00  0.00    +0.023 A 
ATOM     17  C   UNL     1     -28.888 -15.062  13.502  0.00  0.00    +0.005 A 
ATOM     18  C   UNL     1     -30.118 -14.758  12.914  0.00  0.00    +0.046 A 
ATOM     19  C   UNL     1     -31.063 -13.982  13.613  0.00  0.00    +0.122 A 
ATOM     20  C   UNL     1     -30.745 -13.509  14.893  0.00  0.00    +0.069 A 
BRANCH  19  21
ATOM     21  O   UNL     1     -32.320 -13.651  13.080  0.00  0.00    -0.489 OA
BRANCH  21  22
ATOM     22  C   UNL     1     -32.734 -12.343  12.680  0.00  0.00    +0.260 C 
BRANCH  22  23
ATOM     23  C   UNL     1     -33.712 -11.747  13.700  0.00  0.00    +0.156 C 
ATOM     24  C   UNL     1     -34.760 -10.872  13.031  0.00  0.00    +0.037 C 
ATOM     25  C   UNL     1     -35.060  -9.859  14.090  0.00  0.00    +0.031 C 
ATOM     26  C   UNL     1     -33.772  -9.806  14.890  0.00  0.00    +0.160 C 
ATOM     27  O   UNL     1     -33.011 -10.969  14.644  0.00  0.00    -0.373 OA
ENDBRANCH  22  23
ENDBRANCH  21  22
ENDBRANCH  19  21
ENDBRANCH   3  15
TORSDOF 6
ENDMDL
MODEL 8
REMARK VINA RESULT:    -4.133      2.538      4.361
REMARK INTER + INTRA:          -6.722
REMARK INTER:                  -5.253
REMARK INTRA:                  -1.469
REMARK UNBOUND:                -1.138
REMARK  Name = 
REMARK  7 active torsions:
REMARK  status: ('A' for Active; 'I' for Inactive)
REMARK    1  A    between atoms: C_1  and  S_2
REMARK    2  A    between atoms: S_2  and  C_5
REMARK    3  A    between atoms: C_10  and  C_11
REMARK    4  A    between atoms: N_13  and  C_14
REMARK    5  A    between atoms: C_18  and  O_20
REMARK    6  A    between atoms: O_20  and  C_21
REMARK    7  A    between atoms: C_21  and  C_22
REMARK                            x       y       z     vdW  Elec       q    Type
REMARK                         _______ _______ _______ _____ _____    ______ ____
ROOT
ATOM      1  C   UNL     1     -31.919 -11.939  15.745  0.00  0.00    +0.250 C 
ATOM      2  O   UNL     1     -31.403 -10.815  15.986  0.00  0.00    -0.270 OA
ATOM      3  N   UNL     1     -31.786 -13.016  16.683  0.00  0.00    -0.281 N 
ATOM      4  H   UNL     1     -31.819 -13.989  16.299  0.00  0.00    +0.155 HD
ENDROOT
BRANCH   1  10
ATOM      5  C   UNL     1     -32.023 -13.062  13.470  0.00  0.00    +0.100 A 
ATOM      6  C   UNL     1     -32.654 -13.174  12.220  0.00  0.00    +0.028 A 
ATOM      7  C   UNL     1     -33.812 -12.447  11.938  0.00  0.00    +0.002 A 
ATOM      8  C   UNL     1     -34.358 -11.601  12.902  0.00  0.00    +0.001 A 
ATOM      9  C   UNL     1     -33.739 -11.467  14.145  0.00  0.00    +0.015 A 
ATOM     10  C   UNL     1     -32.560 -12.174  14.438  0.00  0.00    +0.062 A 
BRANCH   5  12
ATOM     11  C   UNL     1     -30.217 -15.055  12.333  0.00  0.00    +0.200 C 
ATOM     12  S   UNL     1     -30.626 -14.110  13.784  0.00  0.00    -0.005 S 
ATOM     13  O   UNL     1     -30.971 -15.062  14.895  0.00  0.00    -0.170 OA
ATOM     14  O   UNL     1     -29.434 -13.304  14.218  0.00  0.00    -0.170 OA
ENDBRANCH   5  12
ENDBRANCH   1  10
BRANCH   3  15
ATOM     15  C   UNL     1     -31.481 -12.847  18.079  0.00  0.00    +0.037 A 
ATOM     16  C   UNL     1     -30.260 -13.284  18.624  0.00  0.00    +0.023 A 
ATOM     17  C   UNL     1     -29.981 -13.083  19.977  0.00  0.00    +0.005 A 
ATOM     18  C   UNL     1     -30.907 -12.435  20.798  0.00  0.00    +0.046 A 
ATOM     19  C   UNL     1     -32.123 -11.968  20.262  0.00  0.00    +0.122 A 
ATOM     20  C   UNL     1     -32.396 -12.178  18.905  0.00  0.00    +0.069 A 
BRANCH  19  21
ATOM     21  O   UNL     1     -33.088 -11.300  21.035  0.00  0.00    -0.489 OA
BRANCH  21  22
ATOM     22  C   UNL     1     -32.868 -10.107  21.789  0.00  0.00    +0.260 C 
BRANCH  22  23
ATOM     23  C   UNL     1     -32.939  -8.870  20.883  0.00  0.00    +0.156 C 
ATOM     24  C   UNL     1     -34.021  -9.008  19.825  0.00  0.00    +0.037 C 
ATOM     25  C   UNL     1     -33.467  -8.209  18.689  0.00  0.00    +0.031 C 
ATOM     26  C   UNL     1     -31.968  -8.299  18.904  0.00  0.00    +0.160 C 
ATOM     27  O   UNL     1     -31.700  -8.672  20.238  0.00  0.00    -0.373 OA
ENDBRANCH  22  23
ENDBRANCH  21  22
ENDBRANCH  19  21
ENDBRANCH   3  15
TORSDOF 6
ENDMDL
MODEL 9
REMARK VINA RESULT:    -4.097      2.651      6.619
REMARK INTER + INTRA:          -6.672
REMARK INTER:                  -5.504
REMARK INTRA:                  -1.168
REMARK UNBOUND:                -1.138
REMARK  Name = 
REMARK  7 active torsions:
REMARK  status: ('A' for Active; 'I' for Inactive)
REMARK    1  A    between atoms: C_1  and  S_2
REMARK    2  A    between atoms: S_2  and  C_5
REMARK    3  A    between atoms: C_10  and  C_11
REMARK    4  A    between atoms: N_13  and  C_14
REMARK    5  A    between atoms: C_18  and  O_20
REMARK    6  A    between atoms: O_20  and  C_21
REMARK    7  A    between atoms: C_21  and  C_22
REMARK                            x       y       z     vdW  Elec       q    Type
REMARK                         _______ _______ _______ _____ _____    ______ ____
ROOT
ATOM      1  C   UNL     1     -31.564  -9.886  17.574  0.00  0.00    +0.250 C 
ATOM      2  O   UNL     1     -30.777  -9.445  16.693  0.00  0.00    -0.270 OA
ATOM      3  N   UNL     1     -32.861 -10.377  17.209  0.00  0.00    -0.281 N 
ATOM      4  H   UNL     1     -33.614 -10.317  17.933  0.00  0.00    +0.155 HD
ENDROOT
BRANCH   1  10
ATOM      5  C   UNL     1     -30.937 -10.921  19.806  0.00  0.00    +0.100 A 
ATOM      6  C   UNL     1     -30.655 -10.741  21.170  0.00  0.00    +0.028 A 
ATOM      7  C   UNL     1     -30.592  -9.460  21.722  0.00  0.00    +0.002 A 
ATOM      8  C   UNL     1     -30.804  -8.342  20.917  0.00  0.00    +0.001 A 
ATOM      9  C   UNL     1     -31.097  -8.500  19.563  0.00  0.00    +0.015 A 
ATOM     10  C   UNL     1     -31.187  -9.783  18.995  0.00  0.00    +0.062 A 
BRANCH   5  12
ATOM     11  C   UNL     1     -29.608 -12.724  17.932  0.00  0.00    +0.200 C 
ATOM     12  S   UNL     1     -30.882 -12.575  19.165  0.00  0.00    -0.005 S 
ATOM     13  O   UNL     1     -32.206 -12.894  18.527  0.00  0.00    -0.170 OA
ATOM     14  O   UNL     1     -30.646 -13.572  20.264  0.00  0.00    -0.170 OA
ENDBRANCH   5  12
ENDBRANCH   1  10
BRANCH   3  15
ATOM     15  C   UNL     1     -33.223 -10.819  15.889  0.00  0.00    +0.037 A 
ATOM     16  C   UNL     1     -34.145 -10.106  15.101  0.00  0.00    +0.023 A 
ATOM     17  C   UNL     1     -34.457 -10.545  13.813  0.00  0.00    +0.005 A 
ATOM     18  C   UNL     1     -33.847 -11.687  13.290  0.00  0.00    +0.046 A 
ATOM     19  C   UNL     1     -32.902 -12.398  14.056  0.00  0.00    +0.122 A 
ATOM     20  C   UNL     1     -32.598 -11.953  15.349  0.00  0.00    +0.069 A 
BRANCH  19  21
ATOM     21  O   UNL     1     -32.247 -13.547  13.582  0.00  0.00    -0.489 OA
BRANCH  21  22
ATOM     22  C   UNL     1     -31.205 -13.566  12.605  0.00  0.00    +0.260 C 
BRANCH  22  23
ATOM     23  C   UNL     1     -30.185 -14.669  12.919  0.00  0.00    +0.156 C 
ATOM     24  C   UNL     1     -29.540 -14.469  14.281  0.00  0.00    +0.037 C 
ATOM     25  C   UNL     1     -28.182 -15.062  14.085  0.00  0.00    +0.031 C 
ATOM     26  C   UNL     1     -27.943 -14.892  12.597  0.00  0.00    +0.160 C 
ATOM     27  O   UNL     1     -29.173 -14.685  11.938  0.00  0.00    -0.373 OA
ENDBRANCH  22  23
ENDBRANCH  21  22
ENDBRANCH  19  21
ENDBRANCH   3  15
TORSDOF 6
ENDMDL
