MODEL 1
REMARK VINA RESULT:    -4.747      0.000      0.000
REMARK INTER + INTRA:          -5.981
REMARK INTER:                  -5.579
REMARK INTRA:                  -0.402
REMARK UNBOUND:                -0.402
REMARK  Name = 
REMARK  4 active torsions:
REMARK  status: ('A' for Active; 'I' for Inactive)
REMARK    1  A    between atoms: C_1  and  C_2
REMARK    2  A    between atoms: C_5  and  S_7
REMARK    3  A    between atoms: S_7  and  N_10
REMARK    4  A    between atoms: N_10  and  C_11
REMARK                            x       y       z     vdW  Elec       q    Type
REMARK                         _______ _______ _______ _____ _____    ______ ____
ROOT
ATOM      1  N   UNL     1     -31.297 -13.632  18.834  0.00  0.00    -0.216 N 
ATOM      2  H   UNL     1     -32.040 -14.231  19.257  0.00  0.00    +0.174 HD
ENDROOT
BRANCH   1   3
ATOM      3  C   UNL     1     -31.073 -13.695  17.414  0.00  0.00    +0.052 A 
ATOM      4  C   UNL     1     -31.974 -13.047  16.551  0.00  0.00    +0.028 A 
ATOM      5  C   UNL     1     -31.786 -13.085  15.165  0.00  0.00    +0.051 A 
ATOM      6  C   UNL     1     -30.698 -13.777  14.630  0.00  0.00    +0.162 A 
ATOM      7  O   UNL     1     -30.506 -13.852  13.246  0.00  0.00    -0.485 OA
ATOM      8  C   UNL     1     -29.571 -14.773  12.680  0.00  0.00    +0.270 C 
ATOM      9  C   UNL     1     -28.314 -14.861  13.555  0.00  0.00    +0.270 C 
ATOM     10  O   UNL     1     -28.677 -15.062  14.923  0.00  0.00    -0.485 OA
ATOM     11  C   UNL     1     -29.782 -14.410  15.480  0.00  0.00    +0.164 A 
ATOM     12  C   UNL     1     -29.976 -14.387  16.864  0.00  0.00    +0.074 A 
ENDBRANCH   1   3
BRANCH   1  13
ATOM     13  S   UNL     1     -30.504 -12.505  19.890  0.00  0.00    +0.079 S 
ATOM     14  O   UNL     1     -30.300 -11.204  19.168  0.00  0.00    -0.149 OA
ATOM     15  O   UNL     1     -31.364 -12.267  21.100  0.00  0.00    -0.149 OA
BRANCH  13  20
ATOM     16  C   UNL     1     -25.086 -14.019  20.458  0.00  0.00    +0.051 C 
ATOM     17  C   UNL     1     -26.544 -13.750  20.625  0.00  0.00    -0.011 A 
ATOM     18  C   UNL     1     -27.345 -14.238  21.652  0.00  0.00    +0.013 A 
ATOM     19  C   UNL     1     -28.691 -13.884  21.513  0.00  0.00    +0.037 A 
ATOM     20  C   UNL     1     -28.940 -13.138  20.370  0.00  0.00    +0.146 A 
ATOM     21  S   UNL     1     -27.504 -12.909  19.527  0.00  0.00    -0.074 S 
ENDBRANCH  13  20
ENDBRANCH   1  13
TORSDOF 3
ENDMDL
MODEL 2
REMARK VINA RESULT:    -4.497      2.748      5.967
REMARK INTER + INTRA:          -5.687
REMARK INTER:                  -5.083
REMARK INTRA:                  -0.605
REMARK UNBOUND:                -0.402
REMARK  Name = 
REMARK  4 active torsions:
REMARK  status: ('A' for Active; 'I' for Inactive)
REMARK    1  A    between atoms: C_1  and  C_2
REMARK    2  A    between atoms: C_5  and  S_7
REMARK    3  A    between atoms: S_7  and  N_10
REMARK    4  A    between atoms: N_10  and  C_11
REMARK                            x       y       z     vdW  Elec       q    Type
REMARK                         _______ _______ _______ _____ _____    ______ ____
ROOT
ATOM      1  N   UNL     1     -30.857 -10.857  19.271  0.00  0.00    -0.216 N 
ATOM      2  H   UNL     1     -30.993  -9.901  19.669  0.00  0.00    +0.174 HD
ENDROOT
BRANCH   1   3
ATOM      3  C   UNL     1     -29.583 -11.507  19.434  0.00  0.00    +0.052 A 
ATOM      4  C   UNL     1     -28.552 -11.227  18.520  0.00  0.00    +0.028 A 
ATOM      5  C   UNL     1     -27.301 -11.838  18.649  0.00  0.00    +0.051 A 
ATOM      6  C   UNL     1     -27.071 -12.740  19.689  0.00  0.00    +0.162 A 
ATOM      7  O   UNL     1     -25.836 -13.384  19.821  0.00  0.00    -0.485 OA
ATOM      8  C   UNL     1     -25.676 -14.500  20.699  0.00  0.00    +0.270 C 
ATOM      9  C   UNL     1     -26.480 -14.283  21.988  0.00  0.00    +0.270 C 
ATOM     10  O   UNL     1     -27.818 -13.888  21.676  0.00  0.00    -0.485 OA
ATOM     11  C   UNL     1     -28.083 -13.012  20.618  0.00  0.00    +0.164 A 
ATOM     12  C   UNL     1     -29.340 -12.415  20.483  0.00  0.00    +0.074 A 
ENDBRANCH   1   3
BRANCH   1  13
ATOM     13  S   UNL     1     -32.251 -11.622  18.574  0.00  0.00    +0.079 S 
ATOM     14  O   UNL     1     -32.902 -12.503  19.601  0.00  0.00    -0.149 OA
ATOM     15  O   UNL     1     -33.230 -10.567  18.138  0.00  0.00    -0.149 OA
BRANCH  13  20
ATOM     16  C   UNL     1     -30.802 -13.796  13.560  0.00  0.00    +0.051 C 
ATOM     17  C   UNL     1     -31.086 -13.530  15.000  0.00  0.00    -0.011 A 
ATOM     18  C   UNL     1     -31.088 -14.482  16.014  0.00  0.00    +0.013 A 
ATOM     19  C   UNL     1     -31.461 -13.959  17.257  0.00  0.00    +0.037 A 
ATOM     20  C   UNL     1     -31.768 -12.607  17.206  0.00  0.00    +0.146 A 
ATOM     21  S   UNL     1     -31.578 -12.049  15.632  0.00  0.00    -0.074 S 
ENDBRANCH  13  20
ENDBRANCH   1  13
TORSDOF 3
ENDMDL
MODEL 3
REMARK VINA RESULT:    -4.478      1.100      2.085
REMARK INTER + INTRA:          -5.666
REMARK INTER:                  -5.305
REMARK INTRA:                  -0.360
REMARK UNBOUND:                -0.402
REMARK  Name = 
REMARK  4 active torsions:
REMARK  status: ('A' for Active; 'I' for Inactive)
REMARK    1  A    between atoms: C_1  and  C_2
REMARK    2  A    between atoms: C_5  and  S_7
REMARK    3  A    between atoms: S_7  and  N_10
REMARK    4  A    between atoms: N_10  and  C_11
REMARK                            x       y       z     vdW  Elec       q    Type
REMARK                         _______ _______ _______ _____ _____    ______ ____
ROOT
ATOM      1  N   UNL     1     -31.180 -13.900  18.872  0.00  0.00    -0.216 N 
ATOM      2  H   UNL     1     -31.753 -14.632  19.347  0.00  0.00    +0.174 HD
ENDROOT
BRANCH   1   3
ATOM      3  C   UNL     1     -31.150 -13.860  17.434  0.00  0.00    +0.052 A 
ATOM      4  C   UNL     1     -30.156 -14.582  16.751  0.00  0.00    +0.028 A 
ATOM      5  C   UNL     1     -30.098 -14.568  15.353  0.00  0.00    +0.051 A 
ATOM      6  C   UNL     1     -31.031 -13.826  14.627  0.00  0.00    +0.162 A 
ATOM      7  O   UNL     1     -30.975 -13.776  13.229  0.00  0.00    -0.485 OA
ATOM      8  C   UNL     1     -31.737 -12.815  12.495  0.00  0.00    +0.270 C 
ATOM      9  C   UNL     1     -33.119 -12.630  13.136  0.00  0.00    +0.270 C 
ATOM     10  O   UNL     1     -32.987 -12.416  14.544  0.00  0.00    -0.485 OA
ATOM     11  C   UNL     1     -32.038 -13.119  15.294  0.00  0.00    +0.164 A 
ATOM     12  C   UNL     1     -32.089 -13.118  16.691  0.00  0.00    +0.074 A 
ENDBRANCH   1   3
BRANCH   1  13
ATOM     13  S   UNL     1     -30.432 -12.709  19.889  0.00  0.00    +0.079 S 
ATOM     14  O   UNL     1     -30.278 -11.426  19.123  0.00  0.00    -0.149 OA
ATOM     15  O   UNL     1     -31.302 -12.463  21.090  0.00  0.00    -0.149 OA
BRANCH  13  20
ATOM     16  C   UNL     1     -24.968 -14.035  20.480  0.00  0.00    +0.051 C 
ATOM     17  C   UNL     1     -26.430 -13.793  20.650  0.00  0.00    -0.011 A 
ATOM     18  C   UNL     1     -27.203 -14.223  21.723  0.00  0.00    +0.013 A 
ATOM     19  C   UNL     1     -28.560 -13.916  21.580  0.00  0.00    +0.037 A 
ATOM     20  C   UNL     1     -28.846 -13.264  20.389  0.00  0.00    +0.146 A 
ATOM     21  S   UNL     1     -27.427 -13.061  19.509  0.00  0.00    -0.074 S 
ENDBRANCH  13  20
ENDBRANCH   1  13
TORSDOF 3
ENDMDL
MODEL 4
REMARK VINA RESULT:    -4.378      2.951      7.253
REMARK INTER + INTRA:          -5.548
REMARK INTER:                  -5.279
REMARK INTRA:                  -0.269
REMARK UNBOUND:                -0.402
REMARK  Name = 
REMARK  4 active torsions:
REMARK  status: ('A' for Active; 'I' for Inactive)
REMARK    1  A    between atoms: C_1  and  C_2
REMARK    2  A    between atoms: C_5  and  S_7
REMARK    3  A    between atoms: S_7  and  N_10
REMARK    4  A    between atoms: N_10  and  C_11
REMARK                            x       y       z     vdW  Elec       q    Type
REMARK                         _______ _______ _______ _____ _____    ______ ____
ROOT
ATOM      1  N   UNL     1     -30.443 -12.363  16.355  0.00  0.00    -0.216 N 
ATOM      2  H   UNL     1     -30.662 -11.365  16.140  0.00  0.00    +0.174 HD
ENDROOT
BRANCH   1   3
ATOM      3  C   UNL     1     -29.986 -12.708  17.676  0.00  0.00    +0.052 A 
ATOM      4  C   UNL     1     -30.924 -12.810  18.718  0.00  0.00    +0.028 A 
ATOM      5  C   UNL     1     -30.516 -13.146  20.013  0.00  0.00    +0.051 A 
ATOM      6  C   UNL     1     -29.165 -13.377  20.279  0.00  0.00    +0.162 A 
ATOM      7  O   UNL     1     -28.732 -13.687  21.573  0.00  0.00    -0.485 OA
ATOM      8  C   UNL     1     -27.344 -13.654  21.914  0.00  0.00    +0.270 C 
ATOM      9  C   UNL     1     -26.498 -14.198  20.755  0.00  0.00    +0.270 C 
ATOM     10  O   UNL     1     -26.882 -13.574  19.527  0.00  0.00    -0.485 OA
ATOM     11  C   UNL     1     -28.224 -13.298  19.246  0.00  0.00    +0.164 A 
ATOM     12  C   UNL     1     -28.626 -12.948  17.954  0.00  0.00    +0.074 A 
ENDBRANCH   1   3
BRANCH   1  13
ATOM     13  S   UNL     1     -30.798 -13.528  15.119  0.00  0.00    +0.079 S 
ATOM     14  O   UNL     1     -29.553 -13.808  14.325  0.00  0.00    -0.149 OA
ATOM     15  O   UNL     1     -31.270 -14.803  15.759  0.00  0.00    -0.149 OA
BRANCH  13  20
ATOM     16  C   UNL     1     -35.062 -10.831  12.568  0.00  0.00    +0.051 C 
ATOM     17  C   UNL     1     -33.876 -11.662  12.925  0.00  0.00    -0.011 A 
ATOM     18  C   UNL     1     -33.258 -12.591  12.094  0.00  0.00    +0.013 A 
ATOM     19  C   UNL     1     -32.212 -13.277  12.719  0.00  0.00    +0.037 A 
ATOM     20  C   UNL     1     -32.028 -12.896  14.041  0.00  0.00    +0.146 A 
ATOM     21  S   UNL     1     -33.151 -11.712  14.443  0.00  0.00    -0.074 S 
ENDBRANCH  13  20
ENDBRANCH   1  13
TORSDOF 3
ENDMDL
MODEL 5
REMARK VINA RESULT:    -4.327      2.940      3.736
REMARK INTER + INTRA:          -5.488
REMARK INTER:                  -5.179
REMARK INTRA:                  -0.309
REMARK UNBOUND:                -0.402
REMARK  Name = 
REMARK  4 active torsions:
REMARK  status: ('A' for Active; 'I' for Inactive)
REMARK    1  A    between atoms: C_1  and  C_2
REMARK    2  A    between atoms: C_5  and  S_7
REMARK    3  A    between atoms: S_7  and  N_10
REMARK    4  A    between atoms: N_10  and  C_11
REMARK                            x       y       z     vdW  Elec       q    Type
REMARK                         _______ _______ _______ _____ _____    ______ ____
ROOT
ATOM      1  N   UNL     1     -30.498  -9.417  17.236  0.00  0.00    -0.216 N 
ATOM      2  H   UNL     1     -29.685  -8.877  16.865  0.00  0.00    +0.174 HD
ENDROOT
BRANCH   1   3
ATOM      3  C   UNL     1     -31.493  -9.902  16.316  0.00  0.00    +0.052 A 
ATOM      4  C   UNL     1     -32.772  -9.317  16.323  0.00  0.00    +0.028 A 
ATOM      5  C   UNL     1     -33.763  -9.761  15.441  0.00  0.00    +0.051 A 
ATOM      6  C   UNL     1     -33.486 -10.797  14.549  0.00  0.00    +0.162 A 
ATOM      7  O   UNL     1     -34.470 -11.276  13.677  0.00  0.00    -0.485 OA
ATOM      8  C   UNL     1     -34.292 -12.501  12.963  0.00  0.00    +0.270 C 
ATOM      9  C   UNL     1     -32.836 -12.639  12.500  0.00  0.00    +0.270 C 
ATOM     10  O   UNL     1     -31.944 -12.384  13.588  0.00  0.00    -0.485 OA
ATOM     11  C   UNL     1     -32.211 -11.375  14.518  0.00  0.00    +0.164 A 
ATOM     12  C   UNL     1     -31.223 -10.945  15.408  0.00  0.00    +0.074 A 
ENDBRANCH   1   3
BRANCH   1  13
ATOM     13  S   UNL     1     -30.479  -9.798  18.929  0.00  0.00    +0.079 S 
ATOM     14  O   UNL     1     -30.142  -8.563  19.715  0.00  0.00    -0.149 OA
ATOM     15  O   UNL     1     -31.838 -10.289  19.343  0.00  0.00    -0.149 OA
BRANCH  13  20
ATOM     16  C   UNL     1     -27.230 -13.980  20.909  0.00  0.00    +0.051 C 
ATOM     17  C   UNL     1     -27.878 -12.897  20.114  0.00  0.00    -0.011 A 
ATOM     18  C   UNL     1     -27.369 -12.331  18.950  0.00  0.00    +0.013 A 
ATOM     19  C   UNL     1     -28.156 -11.284  18.460  0.00  0.00    +0.037 A 
ATOM     20  C   UNL     1     -29.265 -11.022  19.251  0.00  0.00    +0.146 A 
ATOM     21  S   UNL     1     -29.283 -12.082  20.557  0.00  0.00    -0.074 S 
ENDBRANCH  13  20
ENDBRANCH   1  13
TORSDOF 3
ENDMDL
MODEL 6
REMARK VINA RESULT:    -4.320      2.475      3.774
REMARK INTER + INTRA:          -5.480
REMARK INTER:                  -5.083
REMARK INTRA:                  -0.397
REMARK UNBOUND:                -0.402
REMARK  Name = 
REMARK  4 active torsions:
REMARK  status: ('A' for Active; 'I' for Inactive)
REMARK    1  A    between atoms: C_1  and  C_2
REMARK    2  A    between atoms: C_5  and  S_7
REMARK    3  A    between atoms: S_7  and  N_10
REMARK    4  A    between atoms: N_10  and  C_11
REMARK                            x       y       z     vdW  Elec       q    Type
REMARK                         _______ _______ _______ _____ _____    ______ ____
ROOT
ATOM      1  N   UNL     1     -29.708 -14.200  18.144  0.00  0.00    -0.216 N 
ATOM      2  H   UNL     1     -30.191 -14.901  18.748  0.00  0.00    +0.174 HD
ENDROOT
BRANCH   1   3
ATOM      3  C   UNL     1     -30.125 -14.051  16.775  0.00  0.00    +0.052 A 
ATOM      4  C   UNL     1     -29.463 -14.787  15.776  0.00  0.00    +0.028 A 
ATOM      5  C   UNL     1     -29.842 -14.669  14.435  0.00  0.00    +0.051 A 
ATOM      6  C   UNL     1     -30.884 -13.810  14.080  0.00  0.00    +0.162 A 
ATOM      7  O   UNL     1     -31.262 -13.656  12.741  0.00  0.00    -0.485 OA
ATOM      8  C   UNL     1     -32.124 -12.591  12.336  0.00  0.00    +0.270 C 
ATOM      9  C   UNL     1     -33.214 -12.359  13.391  0.00  0.00    +0.270 C 
ATOM     10  O   UNL     1     -32.631 -12.264  14.693  0.00  0.00    -0.485 OA
ATOM     11  C   UNL     1     -31.564 -13.087  15.067  0.00  0.00    +0.164 A 
ATOM     12  C   UNL     1     -31.177 -13.190  16.406  0.00  0.00    +0.074 A 
ENDBRANCH   1   3
BRANCH   1  13
ATOM     13  S   UNL     1     -28.537 -13.177  18.915  0.00  0.00    +0.079 S 
ATOM     14  O   UNL     1     -27.834 -13.949  19.995  0.00  0.00    -0.149 OA
ATOM     15  O   UNL     1     -27.527 -12.723  17.898  0.00  0.00    -0.149 OA
BRANCH  13  20
ATOM     16  C   UNL     1     -30.892  -8.202  20.210  0.00  0.00    +0.051 C 
ATOM     17  C   UNL     1     -30.411  -9.614  20.166  0.00  0.00    -0.011 A 
ATOM     18  C   UNL     1     -30.475 -10.524  21.216  0.00  0.00    +0.013 A 
ATOM     19  C   UNL     1     -29.880 -11.753  20.913  0.00  0.00    +0.037 A 
ATOM     20  C   UNL     1     -29.337 -11.793  19.637  0.00  0.00    +0.146 A 
ATOM     21  S   UNL     1     -29.590 -10.316  18.875  0.00  0.00    -0.074 S 
ENDBRANCH  13  20
ENDBRANCH   1  13
TORSDOF 3
ENDMDL
MODEL 7
REMARK VINA RESULT:    -4.320      2.482      3.602
REMARK INTER + INTRA:          -5.480
REMARK INTER:                  -5.060
REMARK INTRA:                  -0.419
REMARK UNBOUND:                -0.402
REMARK  Name = 
REMARK  4 active torsions:
REMARK  status: ('A' for Active; 'I' for Inactive)
REMARK    1  A    between atoms: C_1  and  C_2
REMARK    2  A    between atoms: C_5  and  S_7
REMARK    3  A    between atoms: S_7  and  N_10
REMARK    4  A    between atoms: N_10  and  C_11
REMARK                            x       y       z     vdW  Elec       q    Type
REMARK                         _______ _______ _______ _____ _____    ______ ____
ROOT
ATOM      1  N   UNL     1     -30.046 -10.062  17.177  0.00  0.00    -0.216 N 
ATOM      2  H   UNL     1     -29.280  -9.441  16.834  0.00  0.00    +0.174 HD
ENDROOT
BRANCH   1   3
ATOM      3  C   UNL     1     -30.796 -10.839  16.225  0.00  0.00    +0.052 A 
ATOM      4  C   UNL     1     -30.452 -12.187  16.022  0.00  0.00    +0.028 A 
ATOM      5  C   UNL     1     -31.161 -12.972  15.106  0.00  0.00    +0.051 A 
ATOM      6  C   UNL     1     -32.215 -12.414  14.382  0.00  0.00    +0.162 A 
ATOM      7  O   UNL     1     -32.920 -13.173  13.441  0.00  0.00    -0.485 OA
ATOM      8  C   UNL     1     -33.805 -12.553  12.505  0.00  0.00    +0.270 C 
ATOM      9  C   UNL     1     -34.571 -11.406  13.178  0.00  0.00    +0.270 C 
ATOM     10  O   UNL     1     -33.666 -10.552  13.882  0.00  0.00    -0.485 OA
ATOM     11  C   UNL     1     -32.580 -11.078  14.589  0.00  0.00    +0.164 A 
ATOM     12  C   UNL     1     -31.864 -10.287  15.492  0.00  0.00    +0.074 A 
ENDBRANCH   1   3
BRANCH   1  13
ATOM     13  S   UNL     1     -30.233 -10.198  18.898  0.00  0.00    +0.079 S 
ATOM     14  O   UNL     1     -29.887  -8.886  19.542  0.00  0.00    -0.149 OA
ATOM     15  O   UNL     1     -31.661 -10.542  19.217  0.00  0.00    -0.149 OA
BRANCH  13  20
ATOM     16  C   UNL     1     -27.589 -14.322  21.720  0.00  0.00    +0.051 C 
ATOM     17  C   UNL     1     -28.034 -13.283  20.747  0.00  0.00    -0.011 A 
ATOM     18  C   UNL     1     -27.302 -12.829  19.656  0.00  0.00    +0.013 A 
ATOM     19  C   UNL     1     -27.938 -11.796  18.959  0.00  0.00    +0.037 A 
ATOM     20  C   UNL     1     -29.155 -11.435  19.518  0.00  0.00    +0.146 A 
ATOM     21  S   UNL     1     -29.454 -12.387  20.871  0.00  0.00    -0.074 S 
ENDBRANCH  13  20
ENDBRANCH   1  13
TORSDOF 3
ENDMDL
MODEL 8
REMARK VINA RESULT:    -4.292      2.889      6.539
REMARK INTER + INTRA:          -5.446
REMARK INTER:                  -5.505
REMARK INTRA:                   0.059
REMARK UNBOUND:                -0.402
REMARK  Name = 
REMARK  4 active torsions:
REMARK  status: ('A' for Active; 'I' for Inactive)
REMARK    1  A    between atoms: C_1  and  C_2
REMARK    2  A    between atoms: C_5  and  S_7
REMARK    3  A    between atoms: S_7  and  N_10
REMARK    4  A    between atoms: N_10  and  C_11
REMARK                            x       y       z     vdW  Elec       q    Type
REMARK                         _______ _______ _______ _____ _____    ______ ____
ROOT
ATOM      1  N   UNL     1     -29.296 -10.540  17.800  0.00  0.00    -0.216 N 
ATOM      2  H   UNL     1     -28.631  -9.827  17.426  0.00  0.00    +0.174 HD
ENDROOT
BRANCH   1   3
ATOM      3  C   UNL     1     -28.857 -11.425  18.847  0.00  0.00    +0.052 A 
ATOM      4  C   UNL     1     -29.705 -11.660  19.943  0.00  0.00    +0.028 A 
ATOM      5  C   UNL     1     -29.311 -12.516  20.977  0.00  0.00    +0.051 A 
ATOM      6  C   UNL     1     -28.063 -13.138  20.927  0.00  0.00    +0.162 A 
ATOM      7  O   UNL     1     -27.637 -13.976  21.964  0.00  0.00    -0.485 OA
ATOM      8  C   UNL     1     -26.274 -14.394  22.062  0.00  0.00    +0.270 C 
ATOM      9  C   UNL     1     -25.704 -14.681  20.667  0.00  0.00    +0.270 C 
ATOM     10  O   UNL     1     -25.988 -13.594  19.783  0.00  0.00    -0.485 OA
ATOM     11  C   UNL     1     -27.217 -12.928  19.831  0.00  0.00    +0.164 A 
ATOM     12  C   UNL     1     -27.601 -12.061  18.804  0.00  0.00    +0.074 A 
ENDBRANCH   1   3
BRANCH   1  13
ATOM     13  S   UNL     1     -30.926 -10.480  17.206  0.00  0.00    +0.079 S 
ATOM     14  O   UNL     1     -31.874 -10.841  18.313  0.00  0.00    -0.149 OA
ATOM     15  O   UNL     1     -31.231  -9.086  16.732  0.00  0.00    -0.149 OA
BRANCH  13  20
ATOM     16  C   UNL     1     -32.227 -13.327  12.497  0.00  0.00    +0.051 C 
ATOM     17  C   UNL     1     -31.670 -12.839  13.792  0.00  0.00    -0.011 A 
ATOM     18  C   UNL     1     -30.867 -13.576  14.657  0.00  0.00    +0.013 A 
ATOM     19  C   UNL     1     -30.552 -12.888  15.833  0.00  0.00    +0.037 A 
ATOM     20  C   UNL     1     -31.125 -11.625  15.893  0.00  0.00    +0.146 A 
ATOM     21  S   UNL     1     -32.019 -11.350  14.496  0.00  0.00    -0.074 S 
ENDBRANCH  13  20
ENDBRANCH   1  13
TORSDOF 3
ENDMDL
MODEL 9
REMARK VINA RESULT:    -4.073      2.090      2.466
REMARK INTER + INTRA:          -5.189
REMARK INTER:                  -4.852
REMARK INTRA:                  -0.337
REMARK UNBOUND:                -0.402
REMARK  Name = 
REMARK  4 active torsions:
REMARK  status: ('A' for Active; 'I' for Inactive)
REMARK    1  A    between atoms: C_1  and  C_2
REMARK    2  A    between atoms: C_5  and  S_7
REMARK    3  A    between atoms: S_7  and  N_10
REMARK    4  A    between atoms: N_10  and  C_11
REMARK                            x       y       z     vdW  Elec       q    Type
REMARK                         _______ _______ _______ _____ _____    ______ ____
ROOT
ATOM      1  N   UNL     1     -29.262 -10.584  18.747  0.00  0.00    -0.216 N 
ATOM      2  H   UNL     1     -28.367 -10.049  18.692  0.00  0.00    +0.174 HD
ENDROOT
BRANCH   1   3
ATOM      3  C   UNL     1     -30.029 -10.787  17.546  0.00  0.00    +0.052 A 
ATOM      4  C   UNL     1     -30.763  -9.712  17.014  0.00  0.00    +0.028 A 
ATOM      5  C   UNL     1     -31.518  -9.872  15.847  0.00  0.00    +0.051 A 
ATOM      6  C   UNL     1     -31.549 -11.111  15.205  0.00  0.00    +0.162 A 
ATOM      7  O   UNL     1     -32.319 -11.301  14.052  0.00  0.00    -0.485 OA
ATOM      8  C   UNL     1     -32.580 -12.613  13.548  0.00  0.00    +0.270 C 
ATOM      9  C   UNL     1     -31.337 -13.499  13.699  0.00  0.00    +0.270 C 
ATOM     10  O   UNL     1     -30.821 -13.404  15.029  0.00  0.00    -0.485 OA
ATOM     11  C   UNL     1     -30.807 -12.184  15.713  0.00  0.00    +0.164 A 
ATOM     12  C   UNL     1     -30.065 -12.032  16.887  0.00  0.00    +0.074 A 
ENDBRANCH   1   3
BRANCH   1  13
ATOM     13  S   UNL     1     -29.655 -11.301  20.278  0.00  0.00    +0.079 S 
ATOM     14  O   UNL     1     -29.587 -10.253  21.352  0.00  0.00    -0.149 OA
ATOM     15  O   UNL     1     -31.050 -11.858  20.222  0.00  0.00    -0.149 OA
BRANCH  13  20
ATOM     16  C   UNL     1     -25.386 -14.999  20.537  0.00  0.00    +0.051 C 
ATOM     17  C   UNL     1     -26.594 -14.156  20.775  0.00  0.00    -0.011 A 
ATOM     18  C   UNL     1     -27.527 -14.347  21.788  0.00  0.00    +0.013 A 
ATOM     19  C   UNL     1     -28.597 -13.448  21.725  0.00  0.00    +0.037 A 
ATOM     20  C   UNL     1     -28.507 -12.572  20.653  0.00  0.00    +0.146 A 
ATOM     21  S   UNL     1     -27.107 -12.899  19.780  0.00  0.00    -0.074 S 
ENDBRANCH  13  20
ENDBRANCH   1  13
TORSDOF 3
ENDMDL
