MODEL 1
REMARK VINA RESULT:    -5.768      0.000      0.000
REMARK INTER + INTRA:         -11.395
REMARK INTER:                  -8.466
REMARK INTRA:                  -2.930
REMARK UNBOUND:                -2.930
REMARK  Name = 
REMARK  9 active torsions:
REMARK  status: ('A' for Active; 'I' for Inactive)
REMARK    1  A    between atoms: C_2  and  OXT_3
REMARK    2  A    between atoms: C_2  and  CA_4
REMARK    3  A    between atoms: CA_4  and  CB_5
REMARK    4  A    between atoms: CA_4  and  N_13
REMARK    5  A    between atoms: CB_5  and  CG_6
REMARK    6  A    between atoms: CZ_9  and  OH_10
REMARK    7  A    between atoms: C_14  and  C_16
REMARK    8  A    between atoms: C_16  and  C_17
REMARK    9  A    between atoms: C_16  and  C_23
REMARK                            x       y       z     vdW  Elec       q    Type
REMARK                         _______ _______ _______ _____ _____    ______ ____
ROOT
ATOM      1  N   TYR A   1     -29.202 -13.797  18.995  0.00  0.00    -0.301 N 
ATOM      2  C   UNK A   0     -29.089 -13.466  17.602  0.00  0.00    +0.225 C 
ATOM      3  O   UNK A   0     -28.061 -12.869  17.177  0.00  0.00    -0.275 OA
ATOM      4  H   TYR A   1     -30.079 -14.267  19.318  0.00  0.00    +0.150 HD
ENDROOT
BRANCH   1   5
ATOM      5  CA  TYR A   1     -28.245 -13.313  19.993  0.00  0.00    +0.186 C 
BRANCH   5   7
ATOM      6  O   TYR A   1     -27.717 -15.036  21.584  0.00  0.00    -0.249 OA
ATOM      7  C   TYR A   1     -27.413 -14.460  20.505  0.00  0.00    +0.326 C 
BRANCH   7   8
ATOM      8  OXT TYR A   1     -26.293 -14.874  19.790  0.00  0.00    -0.479 OA
ATOM      9  HXT TYR A   1     -25.697 -15.613  20.143  0.00  0.00    +0.295 HD
ENDBRANCH   7   8
ENDBRANCH   5   7
BRANCH   5  10
ATOM     10  CB  TYR A   1     -28.999 -12.612  21.138  0.00  0.00    +0.069 C 
BRANCH  10  11
ATOM     11  CG  TYR A   1     -30.003 -11.616  20.616  0.00  0.00    -0.045 A 
ATOM     12  CD1 TYR A   1     -31.374 -11.786  20.871  0.00  0.00    +0.007 A 
ATOM     13  CE1 TYR A   1     -32.299 -10.843  20.412  0.00  0.00    +0.045 A 
ATOM     14  CZ  TYR A   1     -31.863  -9.720  19.701  0.00  0.00    +0.117 A 
ATOM     15  CE2 TYR A   1     -30.496  -9.542  19.450  0.00  0.00    +0.045 A 
ATOM     16  CD2 TYR A   1     -29.570 -10.484  19.907  0.00  0.00    +0.007 A 
BRANCH  14  17
ATOM     17  OH  TYR A   1     -32.795  -8.787  19.251  0.00  0.00    -0.507 OA
ATOM     18  HH  TYR A   1     -33.343  -8.946  18.413  0.00  0.00    +0.292 HD
ENDBRANCH  14  17
ENDBRANCH  10  11
ENDBRANCH   5  10
ENDBRANCH   1   5
BRANCH   2  19
ATOM     19  C   UNK A   0     -30.224 -13.811  16.662  0.00  0.00    +0.135 C 
BRANCH  19  20
ATOM     20  C   UNK A   0     -31.240 -12.687  16.547  0.00  0.00    -0.031 A 
ATOM     21  C   UNK A   0     -32.564 -12.911  16.965  0.00  0.00    +0.005 A 
ATOM     22  C   UNK A   0     -33.527 -11.903  16.844  0.00  0.00    +0.000 A 
ATOM     23  C   UNK A   0     -33.181 -10.666  16.295  0.00  0.00    +0.000 A 
ATOM     24  C   UNK A   0     -31.873 -10.435  15.861  0.00  0.00    +0.000 A 
ATOM     25  C   UNK A   0     -30.908 -11.438  15.978  0.00  0.00    +0.005 A 
ENDBRANCH  19  20
BRANCH  19  26
ATOM     26  C   UNK A   0     -29.740 -14.243  15.288  0.00  0.00    -0.031 A 
ATOM     27  C   UNK A   0     -28.411 -14.667  15.083  0.00  0.00    +0.005 A 
ATOM     28  C   UNK A   0     -27.981 -15.062  13.813  0.00  0.00    +0.000 A 
ATOM     29  C   UNK A   0     -28.869 -15.040  12.734  0.00  0.00    +0.000 A 
ATOM     30  C   UNK A   0     -30.188 -14.625  12.925  0.00  0.00    +0.000 A 
ATOM     31  C   UNK A   0     -30.625 -14.231  14.193  0.00  0.00    +0.005 A 
ENDBRANCH  19  26
ENDBRANCH   2  19
TORSDOF 9
ENDMDL
MODEL 2
REMARK VINA RESULT:    -5.241      2.298      5.499
REMARK INTER + INTRA:         -10.622
REMARK INTER:                  -7.914
REMARK INTRA:                  -2.709
REMARK UNBOUND:                -2.930
REMARK  Name = 
REMARK  9 active torsions:
REMARK  status: ('A' for Active; 'I' for Inactive)
REMARK    1  A    between atoms: C_2  and  OXT_3
REMARK    2  A    between atoms: C_2  and  CA_4
REMARK    3  A    between atoms: CA_4  and  CB_5
REMARK    4  A    between atoms: CA_4  and  N_13
REMARK    5  A    between atoms: CB_5  and  CG_6
REMARK    6  A    between atoms: CZ_9  and  OH_10
REMARK    7  A    between atoms: C_14  and  C_16
REMARK    8  A    between atoms: C_16  and  C_17
REMARK    9  A    between atoms: C_16  and  C_23
REMARK                            x       y       z     vdW  Elec       q    Type
REMARK                         _______ _______ _______ _____ _____    ______ ____
ROOT
ATOM      1  N   TYR A   1     -30.691 -10.403  19.668  0.00  0.00    -0.301 N 
ATOM      2  C   UNK A   0     -29.476 -11.160  19.540  0.00  0.00    +0.225 C 
ATOM      3  O   UNK A   0     -28.386 -10.567  19.310  0.00  0.00    -0.275 OA
ATOM      4  H   TYR A   1     -31.581 -10.929  19.832  0.00  0.00    +0.150 HD
ENDROOT
BRANCH   1   5
ATOM      5  CA  TYR A   1     -30.755  -8.971  19.369  0.00  0.00    +0.186 C 
BRANCH   5   7
ATOM      6  O   TYR A   1     -31.654  -8.365  21.514  0.00  0.00    -0.249 OA
ATOM      7  C   TYR A   1     -30.756  -8.178  20.650  0.00  0.00    +0.326 C 
BRANCH   7   8
ATOM      8  OXT TYR A   1     -29.770  -7.221  20.871  0.00  0.00    -0.479 OA
ATOM      9  HXT TYR A   1     -29.477  -6.987  21.812  0.00  0.00    +0.295 HD
ENDBRANCH   7   8
ENDBRANCH   5   7
BRANCH   5  10
ATOM     10  CB  TYR A   1     -32.006  -8.673  18.523  0.00  0.00    +0.069 C 
BRANCH  10  11
ATOM     11  CG  TYR A   1     -32.175  -9.674  17.409  0.00  0.00    -0.045 A 
ATOM     12  CD1 TYR A   1     -33.341 -10.454  17.323  0.00  0.00    +0.007 A 
ATOM     13  CE1 TYR A   1     -33.508 -11.357  16.268  0.00  0.00    +0.045 A 
ATOM     14  CZ  TYR A   1     -32.518 -11.486  15.289  0.00  0.00    +0.117 A 
ATOM     15  CE2 TYR A   1     -31.357 -10.705  15.366  0.00  0.00    +0.045 A 
ATOM     16  CD2 TYR A   1     -31.187  -9.802  16.419  0.00  0.00    +0.007 A 
BRANCH  14  17
ATOM     17  OH  TYR A   1     -32.698 -12.390  14.244  0.00  0.00    -0.507 OA
ATOM     18  HH  TYR A   1     -33.084 -12.099  13.352  0.00  0.00    +0.292 HD
ENDBRANCH  14  17
ENDBRANCH  10  11
ENDBRANCH   5  10
ENDBRANCH   1   5
BRANCH   2  19
ATOM     19  C   UNK A   0     -29.526 -12.668  19.651  0.00  0.00    +0.135 C 
BRANCH  19  20
ATOM     20  C   UNK A   0     -29.832 -13.334  18.321  0.00  0.00    -0.031 A 
ATOM     21  C   UNK A   0     -31.044 -14.032  18.163  0.00  0.00    +0.005 A 
ATOM     22  C   UNK A   0     -31.339 -14.679  16.958  0.00  0.00    +0.000 A 
ATOM     23  C   UNK A   0     -30.424 -14.647  15.903  0.00  0.00    +0.000 A 
ATOM     24  C   UNK A   0     -29.210 -13.972  16.051  0.00  0.00    +0.000 A 
ATOM     25  C   UNK A   0     -28.909 -13.325  17.252  0.00  0.00    +0.005 A 
ENDBRANCH  19  20
BRANCH  19  26
ATOM     26  C   UNK A   0     -28.268 -13.254  20.271  0.00  0.00    -0.031 A 
ATOM     27  C   UNK A   0     -27.010 -13.098  19.654  0.00  0.00    +0.005 A 
ATOM     28  C   UNK A   0     -25.862 -13.643  20.237  0.00  0.00    +0.000 A 
ATOM     29  C   UNK A   0     -25.955 -14.348  21.440  0.00  0.00    +0.000 A 
ATOM     30  C   UNK A   0     -27.194 -14.506  22.062  0.00  0.00    +0.000 A 
ATOM     31  C   UNK A   0     -28.346 -13.962  21.485  0.00  0.00    +0.005 A 
ENDBRANCH  19  26
ENDBRANCH   2  19
TORSDOF 9
ENDMDL
MODEL 3
REMARK VINA RESULT:    -5.173      1.919      4.993
REMARK INTER + INTRA:         -10.523
REMARK INTER:                  -7.597
REMARK INTRA:                  -2.926
REMARK UNBOUND:                -2.930
REMARK  Name = 
REMARK  9 active torsions:
REMARK  status: ('A' for Active; 'I' for Inactive)
REMARK    1  A    between atoms: C_2  and  OXT_3
REMARK    2  A    between atoms: C_2  and  CA_4
REMARK    3  A    between atoms: CA_4  and  CB_5
REMARK    4  A    between atoms: CA_4  and  N_13
REMARK    5  A    between atoms: CB_5  and  CG_6
REMARK    6  A    between atoms: CZ_9  and  OH_10
REMARK    7  A    between atoms: C_14  and  C_16
REMARK    8  A    between atoms: C_16  and  C_17
REMARK    9  A    between atoms: C_16  and  C_23
REMARK                            x       y       z     vdW  Elec       q    Type
REMARK                         _______ _______ _______ _____ _____    ______ ____
ROOT
ATOM      1  N   TYR A   1     -32.034 -10.248  17.956  0.00  0.00    -0.301 N 
ATOM      2  C   UNK A   0     -33.308 -10.884  17.767  0.00  0.00    +0.225 C 
ATOM      3  O   UNK A   0     -34.276 -10.595  18.525  0.00  0.00    -0.275 OA
ATOM      4  H   TYR A   1     -31.247 -10.531  17.327  0.00  0.00    +0.150 HD
ENDROOT
BRANCH   1   5
ATOM      5  CA  TYR A   1     -31.750  -9.397  19.114  0.00  0.00    +0.186 C 
BRANCH   5   7
ATOM      6  O   TYR A   1     -31.883  -7.042  19.579  0.00  0.00    -0.249 OA
ATOM      7  C   TYR A   1     -32.281  -8.009  18.874  0.00  0.00    +0.326 C 
BRANCH   7   8
ATOM      8  OXT TYR A   1     -33.231  -7.795  17.879  0.00  0.00    -0.479 OA
ATOM      9  HXT TYR A   1     -34.218  -7.766  18.102  0.00  0.00    +0.295 HD
ENDBRANCH   7   8
ENDBRANCH   5   7
BRANCH   5  10
ATOM     10  CB  TYR A   1     -30.234  -9.379  19.385  0.00  0.00    +0.069 C 
BRANCH  10  11
ATOM     11  CG  TYR A   1     -29.684 -10.770  19.567  0.00  0.00    -0.045 A 
ATOM     12  CD1 TYR A   1     -28.608 -11.220  18.783  0.00  0.00    +0.007 A 
ATOM     13  CE1 TYR A   1     -28.080 -12.500  18.978  0.00  0.00    +0.045 A 
ATOM     14  CZ  TYR A   1     -28.617 -13.340  19.960  0.00  0.00    +0.117 A 
ATOM     15  CE2 TYR A   1     -29.685 -12.894  20.749  0.00  0.00    +0.045 A 
ATOM     16  CD2 TYR A   1     -30.216 -11.615  20.556  0.00  0.00    +0.007 A 
BRANCH  14  17
ATOM     17  OH  TYR A   1     -28.080 -14.612  20.144  0.00  0.00    -0.507 OA
ATOM     18  HH  TYR A   1     -27.122 -14.825  19.890  0.00  0.00    +0.292 HD
ENDBRANCH  14  17
ENDBRANCH  10  11
ENDBRANCH   5  10
ENDBRANCH   1   5
BRANCH   2  19
ATOM     19  C   UNK A   0     -33.467 -11.919  16.674  0.00  0.00    +0.135 C 
BRANCH  19  20
ATOM     20  C   UNK A   0     -33.941 -11.309  15.367  0.00  0.00    -0.031 A 
ATOM     21  C   UNK A   0     -34.255  -9.938  15.320  0.00  0.00    +0.005 A 
ATOM     22  C   UNK A   0     -34.721  -9.356  14.137  0.00  0.00    +0.000 A 
ATOM     23  C   UNK A   0     -34.891 -10.137  12.991  0.00  0.00    +0.000 A 
ATOM     24  C   UNK A   0     -34.600 -11.503  13.027  0.00  0.00    +0.000 A 
ATOM     25  C   UNK A   0     -34.135 -12.090  14.207  0.00  0.00    +0.005 A 
ENDBRANCH  19  20
BRANCH  19  26
ATOM     26  C   UNK A   0     -32.209 -12.745  16.459  0.00  0.00    -0.031 A 
ATOM     27  C   UNK A   0     -31.296 -12.429  15.432  0.00  0.00    +0.005 A 
ATOM     28  C   UNK A   0     -30.143 -13.198  15.248  0.00  0.00    +0.000 A 
ATOM     29  C   UNK A   0     -29.887 -14.288  16.083  0.00  0.00    +0.000 A 
ATOM     30  C   UNK A   0     -30.781 -14.609  17.106  0.00  0.00    +0.000 A 
ATOM     31  C   UNK A   0     -31.935 -13.843  17.297  0.00  0.00    +0.005 A 
ENDBRANCH  19  26
ENDBRANCH   2  19
TORSDOF 9
ENDMDL
MODEL 4
REMARK VINA RESULT:    -5.101      2.406      5.420
REMARK INTER + INTRA:         -10.416
REMARK INTER:                  -7.290
REMARK INTRA:                  -3.126
REMARK UNBOUND:                -2.930
REMARK  Name = 
REMARK  9 active torsions:
REMARK  status: ('A' for Active; 'I' for Inactive)
REMARK    1  A    between atoms: C_2  and  OXT_3
REMARK    2  A    between atoms: C_2  and  CA_4
REMARK    3  A    between atoms: CA_4  and  CB_5
REMARK    4  A    between atoms: CA_4  and  N_13
REMARK    5  A    between atoms: CB_5  and  CG_6
REMARK    6  A    between atoms: CZ_9  and  OH_10
REMARK    7  A    between atoms: C_14  and  C_16
REMARK    8  A    between atoms: C_16  and  C_17
REMARK    9  A    between atoms: C_16  and  C_23
REMARK                            x       y       z     vdW  Elec       q    Type
REMARK                         _______ _______ _______ _____ _____    ______ ____
ROOT
ATOM      1  N   TYR A   1     -30.214 -10.631  18.968  0.00  0.00    -0.301 N 
ATOM      2  C   UNK A   0     -28.925 -10.828  18.366  0.00  0.00    +0.225 C 
ATOM      3  O   UNK A   0     -28.282  -9.839  17.915  0.00  0.00    -0.275 OA
ATOM      4  H   TYR A   1     -30.731 -11.475  19.307  0.00  0.00    +0.150 HD
ENDROOT
BRANCH   1   5
ATOM      5  CA  TYR A   1     -30.906  -9.341  18.927  0.00  0.00    +0.186 C 
BRANCH   5   7
ATOM      6  O   TYR A   1     -31.578  -8.925  21.198  0.00  0.00    -0.249 OA
ATOM      7  C   TYR A   1     -30.782  -8.649  20.259  0.00  0.00    +0.326 C 
BRANCH   7   8
ATOM      8  OXT TYR A   1     -29.795  -7.687  20.449  0.00  0.00    -0.479 OA
ATOM      9  HXT TYR A   1     -29.936  -6.918  21.093  0.00  0.00    +0.295 HD
ENDBRANCH   7   8
ENDBRANCH   5   7
BRANCH   5  10
ATOM     10  CB  TYR A   1     -32.381  -9.555  18.542  0.00  0.00    +0.069 C 
BRANCH  10  11
ATOM     11  CG  TYR A   1     -32.513 -10.298  17.236  0.00  0.00    -0.045 A 
ATOM     12  CD1 TYR A   1     -31.602 -10.067  16.191  0.00  0.00    +0.007 A 
ATOM     13  CE1 TYR A   1     -31.708 -10.781  14.994  0.00  0.00    +0.045 A 
ATOM     14  CZ  TYR A   1     -32.718 -11.735  14.831  0.00  0.00    +0.117 A 
ATOM     15  CE2 TYR A   1     -33.624 -11.975  15.873  0.00  0.00    +0.045 A 
ATOM     16  CD2 TYR A   1     -33.521 -11.261  17.071  0.00  0.00    +0.007 A 
BRANCH  14  17
ATOM     17  OH  TYR A   1     -32.810 -12.441  13.633  0.00  0.00    -0.507 OA
ATOM     18  HH  TYR A   1     -32.061 -13.045  13.314  0.00  0.00    +0.292 HD
ENDBRANCH  14  17
ENDBRANCH  10  11
ENDBRANCH   5  10
ENDBRANCH   1   5
BRANCH   2  19
ATOM     19  C   UNK A   0     -28.365 -12.229  18.251  0.00  0.00    +0.135 C 
BRANCH  19  20
ATOM     20  C   UNK A   0     -27.974 -12.805  19.601  0.00  0.00    -0.031 A 
ATOM     21  C   UNK A   0     -26.898 -13.708  19.678  0.00  0.00    +0.005 A 
ATOM     22  C   UNK A   0     -26.534 -14.276  20.904  0.00  0.00    +0.000 A 
ATOM     23  C   UNK A   0     -27.246 -13.959  22.062  0.00  0.00    +0.000 A 
ATOM     24  C   UNK A   0     -28.327 -13.077  21.998  0.00  0.00    +0.000 A 
ATOM     25  C   UNK A   0     -28.697 -12.507  20.777  0.00  0.00    +0.005 A 
ENDBRANCH  19  20
BRANCH  19  26
ATOM     26  C   UNK A   0     -29.295 -13.176  17.510  0.00  0.00    -0.031 A 
ATOM     27  C   UNK A   0     -30.482 -13.647  18.106  0.00  0.00    +0.005 A 
ATOM     28  C   UNK A   0     -31.328 -14.517  17.410  0.00  0.00    +0.000 A 
ATOM     29  C   UNK A   0     -31.000 -14.925  16.115  0.00  0.00    +0.000 A 
ATOM     30  C   UNK A   0     -29.829 -14.463  15.513  0.00  0.00    +0.000 A 
ATOM     31  C   UNK A   0     -28.980 -13.592  16.202  0.00  0.00    +0.005 A 
ENDBRANCH  19  26
ENDBRANCH   2  19
TORSDOF 9
ENDMDL
MODEL 5
REMARK VINA RESULT:    -4.935      2.149      5.389
REMARK INTER + INTRA:         -10.173
REMARK INTER:                  -7.660
REMARK INTRA:                  -2.512
REMARK UNBOUND:                -2.930
REMARK  Name = 
REMARK  9 active torsions:
REMARK  status: ('A' for Active; 'I' for Inactive)
REMARK    1  A    between atoms: C_2  and  OXT_3
REMARK    2  A    between atoms: C_2  and  CA_4
REMARK    3  A    between atoms: CA_4  and  CB_5
REMARK    4  A    between atoms: CA_4  and  N_13
REMARK    5  A    between atoms: CB_5  and  CG_6
REMARK    6  A    between atoms: CZ_9  and  OH_10
REMARK    7  A    between atoms: C_14  and  C_16
REMARK    8  A    between atoms: C_16  and  C_17
REMARK    9  A    between atoms: C_16  and  C_23
REMARK                            x       y       z     vdW  Elec       q    Type
REMARK                         _______ _______ _______ _____ _____    ______ ____
ROOT
ATOM      1  N   TYR A   1     -31.659  -9.387  17.754  0.00  0.00    -0.301 N 
ATOM      2  C   UNK A   0     -32.495 -10.342  17.082  0.00  0.00    +0.225 C 
ATOM      3  O   UNK A   0     -33.605 -10.672  17.585  0.00  0.00    -0.275 OA
ATOM      4  H   TYR A   1     -30.733  -9.157  17.324  0.00  0.00    +0.150 HD
ENDROOT
BRANCH   1   5
ATOM      5  CA  TYR A   1     -31.957  -8.900  19.103  0.00  0.00    +0.186 C 
BRANCH   5   7
ATOM      6  O   TYR A   1     -31.868  -6.578  19.720  0.00  0.00    -0.249 OA
ATOM      7  C   TYR A   1     -32.438  -7.475  19.040  0.00  0.00    +0.326 C 
BRANCH   7   8
ATOM      8  OXT TYR A   1     -33.529  -7.148  18.240  0.00  0.00    -0.479 OA
ATOM      9  HXT TYR A   1     -33.537  -7.380  17.255  0.00  0.00    +0.295 HD
ENDBRANCH   7   8
ENDBRANCH   5   7
BRANCH   5  10
ATOM     10  CB  TYR A   1     -30.705  -9.031  19.991  0.00  0.00    +0.069 C 
BRANCH  10  11
ATOM     11  CG  TYR A   1     -30.114 -10.416  19.918  0.00  0.00    -0.045 A 
ATOM     12  CD1 TYR A   1     -30.612 -11.447  20.734  0.00  0.00    +0.007 A 
ATOM     13  CE1 TYR A   1     -30.082 -12.738  20.639  0.00  0.00    +0.045 A 
ATOM     14  CZ  TYR A   1     -29.058 -13.013  19.727  0.00  0.00    +0.117 A 
ATOM     15  CE2 TYR A   1     -28.563 -11.990  18.906  0.00  0.00    +0.045 A 
ATOM     16  CD2 TYR A   1     -29.090 -10.699  18.999  0.00  0.00    +0.007 A 
BRANCH  14  17
ATOM     17  OH  TYR A   1     -28.541 -14.304  19.644  0.00  0.00    -0.507 OA
ATOM     18  HH  TYR A   1     -28.246 -14.812  20.470  0.00  0.00    +0.292 HD
ENDBRANCH  14  17
ENDBRANCH  10  11
ENDBRANCH   5  10
ENDBRANCH   1   5
BRANCH   2  19
ATOM     19  C   UNK A   0     -32.018 -10.966  15.789  0.00  0.00    +0.135 C 
BRANCH  19  20
ATOM     20  C   UNK A   0     -31.467 -12.367  15.994  0.00  0.00    -0.031 A 
ATOM     21  C   UNK A   0     -31.923 -13.134  17.082  0.00  0.00    +0.005 A 
ATOM     22  C   UNK A   0     -31.411 -14.415  17.311  0.00  0.00    +0.000 A 
ATOM     23  C   UNK A   0     -30.431 -14.941  16.466  0.00  0.00    +0.000 A 
ATOM     24  C   UNK A   0     -29.957 -14.184  15.392  0.00  0.00    +0.000 A 
ATOM     25  C   UNK A   0     -30.463 -12.903  15.158  0.00  0.00    +0.005 A 
ENDBRANCH  19  20
BRANCH  19  26
ATOM     26  C   UNK A   0     -33.082 -10.959  14.704  0.00  0.00    -0.031 A 
ATOM     27  C   UNK A   0     -33.208 -12.033  13.799  0.00  0.00    +0.005 A 
ATOM     28  C   UNK A   0     -34.192 -12.011  12.806  0.00  0.00    +0.000 A 
ATOM     29  C   UNK A   0     -35.062 -10.922  12.705  0.00  0.00    +0.000 A 
ATOM     30  C   UNK A   0     -34.950  -9.855  13.598  0.00  0.00    +0.000 A 
ATOM     31  C   UNK A   0     -33.968  -9.871  14.593  0.00  0.00    +0.005 A 
ENDBRANCH  19  26
ENDBRANCH   2  19
TORSDOF 9
ENDMDL
MODEL 6
REMARK VINA RESULT:    -4.785      1.314      2.117
REMARK INTER + INTRA:          -9.953
REMARK INTER:                  -7.424
REMARK INTRA:                  -2.530
REMARK UNBOUND:                -2.930
REMARK  Name = 
REMARK  9 active torsions:
REMARK  status: ('A' for Active; 'I' for Inactive)
REMARK    1  A    between atoms: C_2  and  OXT_3
REMARK    2  A    between atoms: C_2  and  CA_4
REMARK    3  A    between atoms: CA_4  and  CB_5
REMARK    4  A    between atoms: CA_4  and  N_13
REMARK    5  A    between atoms: CB_5  and  CG_6
REMARK    6  A    between atoms: CZ_9  and  OH_10
REMARK    7  A    between atoms: C_14  and  C_16
REMARK    8  A    between atoms: C_16  and  C_17
REMARK    9  A    between atoms: C_16  and  C_23
REMARK                            x       y       z     vdW  Elec       q    Type
REMARK                         _______ _______ _______ _____ _____    ______ ____
ROOT
ATOM      1  N   TYR A   1     -30.009 -12.022  18.154  0.00  0.00    -0.301 N 
ATOM      2  C   UNK A   0     -30.755 -13.229  17.935  0.00  0.00    +0.225 C 
ATOM      3  O   UNK A   0     -30.752 -14.140  18.809  0.00  0.00    -0.275 OA
ATOM      4  H   TYR A   1     -30.012 -11.299  17.398  0.00  0.00    +0.150 HD
ENDROOT
BRANCH   1   5
ATOM      5  CA  TYR A   1     -29.091 -11.866  19.284  0.00  0.00    +0.186 C 
BRANCH   5   7
ATOM      6  O   TYR A   1     -27.345 -13.455  18.829  0.00  0.00    -0.249 OA
ATOM      7  C   TYR A   1     -28.351 -13.155  19.528  0.00  0.00    +0.326 C 
BRANCH   7   8
ATOM      8  OXT TYR A   1     -28.791 -14.028  20.518  0.00  0.00    -0.479 OA
ATOM      9  HXT TYR A   1     -28.885 -13.719  21.478  0.00  0.00    +0.295 HD
ENDBRANCH   7   8
ENDBRANCH   5   7
BRANCH   5  10
ATOM     10  CB  TYR A   1     -29.875 -11.425  20.534  0.00  0.00    +0.069 C 
BRANCH  10  11
ATOM     11  CG  TYR A   1     -31.148 -10.706  20.166  0.00  0.00    -0.045 A 
ATOM     12  CD1 TYR A   1     -32.398 -11.241  20.525  0.00  0.00    +0.007 A 
ATOM     13  CE1 TYR A   1     -33.575 -10.554  20.210  0.00  0.00    +0.045 A 
ATOM     14  CZ  TYR A   1     -33.515  -9.327  19.542  0.00  0.00    +0.117 A 
ATOM     15  CE2 TYR A   1     -32.272  -8.786  19.189  0.00  0.00    +0.045 A 
ATOM     16  CD2 TYR A   1     -31.094  -9.470  19.501  0.00  0.00    +0.007 A 
BRANCH  14  17
ATOM     17  OH  TYR A   1     -34.696  -8.654  19.236  0.00  0.00    -0.507 OA
ATOM     18  HH  TYR A   1     -34.984  -8.497  18.276  0.00  0.00    +0.292 HD
ENDBRANCH  14  17
ENDBRANCH  10  11
ENDBRANCH   5  10
ENDBRANCH   1   5
BRANCH   2  19
ATOM     19  C   UNK A   0     -31.514 -13.407  16.638  0.00  0.00    +0.135 C 
BRANCH  19  20
ATOM     20  C   UNK A   0     -32.301 -12.166  16.255  0.00  0.00    -0.031 A 
ATOM     21  C   UNK A   0     -31.614 -11.036  15.775  0.00  0.00    +0.005 A 
ATOM     22  C   UNK A   0     -32.311  -9.870  15.443  0.00  0.00    +0.000 A 
ATOM     23  C   UNK A   0     -33.699  -9.814  15.596  0.00  0.00    +0.000 A 
ATOM     24  C   UNK A   0     -34.392 -10.923  16.087  0.00  0.00    +0.000 A 
ATOM     25  C   UNK A   0     -33.701 -12.090  16.422  0.00  0.00    +0.005 A 
ENDBRANCH  19  20
BRANCH  19  26
ATOM     26  C   UNK A   0     -30.623 -13.856  15.491  0.00  0.00    -0.031 A 
ATOM     27  C   UNK A   0     -31.079 -13.824  14.157  0.00  0.00    +0.005 A 
ATOM     28  C   UNK A   0     -30.246 -14.239  13.114  0.00  0.00    +0.000 A 
ATOM     29  C   UNK A   0     -28.952 -14.688  13.386  0.00  0.00    +0.000 A 
ATOM     30  C   UNK A   0     -28.487 -14.721  14.702  0.00  0.00    +0.000 A 
ATOM     31  C   UNK A   0     -29.314 -14.306  15.750  0.00  0.00    +0.005 A 
ENDBRANCH  19  26
ENDBRANCH   2  19
TORSDOF 9
ENDMDL
MODEL 7
REMARK VINA RESULT:    -4.627      1.866      5.902
REMARK INTER + INTRA:          -9.721
REMARK INTER:                  -6.558
REMARK INTRA:                  -3.163
REMARK UNBOUND:                -2.930
REMARK  Name = 
REMARK  9 active torsions:
REMARK  status: ('A' for Active; 'I' for Inactive)
REMARK    1  A    between atoms: C_2  and  OXT_3
REMARK    2  A    between atoms: C_2  and  CA_4
REMARK    3  A    between atoms: CA_4  and  CB_5
REMARK    4  A    between atoms: CA_4  and  N_13
REMARK    5  A    between atoms: CB_5  and  CG_6
REMARK    6  A    between atoms: CZ_9  and  OH_10
REMARK    7  A    between atoms: C_14  and  C_16
REMARK    8  A    between atoms: C_16  and  C_17
REMARK    9  A    between atoms: C_16  and  C_23
REMARK                            x       y       z     vdW  Elec       q    Type
REMARK                         _______ _______ _______ _____ _____    ______ ____
ROOT
ATOM      1  N   TYR A   1     -30.149 -13.117  17.236  0.00  0.00    -0.301 N 
ATOM      2  C   UNK A   0     -30.541 -13.861  18.400  0.00  0.00    +0.225 C 
ATOM      3  O   UNK A   0     -31.108 -14.982  18.271  0.00  0.00    -0.275 OA
ATOM      4  H   TYR A   1     -29.706 -12.180  17.379  0.00  0.00    +0.150 HD
ENDROOT
BRANCH   1   5
ATOM      5  CA  TYR A   1     -30.537 -13.522  15.883  0.00  0.00    +0.186 C 
BRANCH   5   7
ATOM      6  O   TYR A   1     -29.449 -14.518  13.984  0.00  0.00    -0.249 OA
ATOM      7  C   TYR A   1     -29.393 -14.235  15.212  0.00  0.00    +0.326 C 
BRANCH   7   8
ATOM      8  OXT TYR A   1     -28.275 -14.600  15.955  0.00  0.00    -0.479 OA
ATOM      9  HXT TYR A   1     -28.362 -15.213  16.757  0.00  0.00    +0.295 HD
ENDBRANCH   7   8
ENDBRANCH   5   7
BRANCH   5  10
ATOM     10  CB  TYR A   1     -30.977 -12.285  15.077  0.00  0.00    +0.069 C 
BRANCH  10  11
ATOM     11  CG  TYR A   1     -32.067 -11.520  15.783  0.00  0.00    -0.045 A 
ATOM     12  CD1 TYR A   1     -33.215 -12.184  16.250  0.00  0.00    +0.007 A 
ATOM     13  CE1 TYR A   1     -34.209 -11.476  16.933  0.00  0.00    +0.045 A 
ATOM     14  CZ  TYR A   1     -34.064 -10.104  17.162  0.00  0.00    +0.117 A 
ATOM     15  CE2 TYR A   1     -32.918  -9.439  16.705  0.00  0.00    +0.045 A 
ATOM     16  CD2 TYR A   1     -31.923 -10.144  16.021  0.00  0.00    +0.007 A 
BRANCH  14  17
ATOM     17  OH  TYR A   1     -35.062  -9.412  17.845  0.00  0.00    -0.507 OA
ATOM     18  HH  TYR A   1     -35.732  -8.829  17.357  0.00  0.00    +0.292 HD
ENDBRANCH  14  17
ENDBRANCH  10  11
ENDBRANCH   5  10
ENDBRANCH   1   5
BRANCH   2  19
ATOM     19  C   UNK A   0     -30.296 -13.274  19.773  0.00  0.00    +0.135 C 
BRANCH  19  20
ATOM     20  C   UNK A   0     -28.862 -13.468  20.236  0.00  0.00    -0.031 A 
ATOM     21  C   UNK A   0     -28.616 -13.924  21.544  0.00  0.00    +0.005 A 
ATOM     22  C   UNK A   0     -27.305 -14.083  22.005  0.00  0.00    +0.000 A 
ATOM     23  C   UNK A   0     -26.227 -13.779  21.171  0.00  0.00    +0.000 A 
ATOM     24  C   UNK A   0     -26.456 -13.310  19.876  0.00  0.00    +0.000 A 
ATOM     25  C   UNK A   0     -27.763 -13.147  19.409  0.00  0.00    +0.005 A 
ENDBRANCH  19  20
BRANCH  19  26
ATOM     26  C   UNK A   0     -30.702 -11.813  19.870  0.00  0.00    -0.031 A 
ATOM     27  C   UNK A   0     -29.852 -10.788  19.404  0.00  0.00    +0.005 A 
ATOM     28  C   UNK A   0     -30.240  -9.448  19.500  0.00  0.00    +0.000 A 
ATOM     29  C   UNK A   0     -31.476  -9.114  20.058  0.00  0.00    +0.000 A 
ATOM     30  C   UNK A   0     -32.328 -10.120  20.520  0.00  0.00    +0.000 A 
ATOM     31  C   UNK A   0     -31.947 -11.462  20.426  0.00  0.00    +0.005 A 
ENDBRANCH  19  26
ENDBRANCH   2  19
TORSDOF 9
ENDMDL
MODEL 8
REMARK VINA RESULT:    -4.507      3.039      6.026
REMARK INTER + INTRA:          -9.544
REMARK INTER:                  -6.569
REMARK INTRA:                  -2.975
REMARK UNBOUND:                -2.930
REMARK  Name = 
REMARK  9 active torsions:
REMARK  status: ('A' for Active; 'I' for Inactive)
REMARK    1  A    between atoms: C_2  and  OXT_3
REMARK    2  A    between atoms: C_2  and  CA_4
REMARK    3  A    between atoms: CA_4  and  CB_5
REMARK    4  A    between atoms: CA_4  and  N_13
REMARK    5  A    between atoms: CB_5  and  CG_6
REMARK    6  A    between atoms: CZ_9  and  OH_10
REMARK    7  A    between atoms: C_14  and  C_16
REMARK    8  A    between atoms: C_16  and  C_17
REMARK    9  A    between atoms: C_16  and  C_23
REMARK                            x       y       z     vdW  Elec       q    Type
REMARK                         _______ _______ _______ _____ _____    ______ ____
ROOT
ATOM      1  N   TYR A   1     -33.473  -9.742  16.655  0.00  0.00    -0.301 N 
ATOM      2  C   UNK A   0     -33.832 -11.111  16.413  0.00  0.00    +0.225 C 
ATOM      3  O   UNK A   0     -35.048 -11.449  16.385  0.00  0.00    -0.275 OA
ATOM      4  H   TYR A   1     -32.455  -9.502  16.698  0.00  0.00    +0.150 HD
ENDROOT
BRANCH   1   5
ATOM      5  CA  TYR A   1     -34.459  -8.734  17.050  0.00  0.00    +0.186 C 
BRANCH   5   7
ATOM      6  O   TYR A   1     -35.061  -8.302  14.763  0.00  0.00    -0.249 OA
ATOM      7  C   TYR A   1     -34.757  -7.822  15.889  0.00  0.00    +0.326 C 
BRANCH   7   8
ATOM      8  OXT TYR A   1     -34.678  -6.443  16.055  0.00  0.00    -0.479 OA
ATOM      9  HXT TYR A   1     -34.897  -6.014  16.946  0.00  0.00    +0.295 HD
ENDBRANCH   7   8
ENDBRANCH   5   7
BRANCH   5  10
ATOM     10  CB  TYR A   1     -33.936  -7.943  18.264  0.00  0.00    +0.069 C 
BRANCH  10  11
ATOM     11  CG  TYR A   1     -33.214  -8.837  19.240  0.00  0.00    -0.045 A 
ATOM     12  CD1 TYR A   1     -31.917  -8.515  19.676  0.00  0.00    +0.007 A 
ATOM     13  CE1 TYR A   1     -31.264  -9.329  20.606  0.00  0.00    +0.045 A 
ATOM     14  CZ  TYR A   1     -31.901 -10.466  21.115  0.00  0.00    +0.117 A 
ATOM     15  CE2 TYR A   1     -33.197 -10.787  20.690  0.00  0.00    +0.045 A 
ATOM     16  CD2 TYR A   1     -33.852  -9.975  19.759  0.00  0.00    +0.007 A 
BRANCH  14  17
ATOM     17  OH  TYR A   1     -31.239 -11.268  22.043  0.00  0.00    -0.507 OA
ATOM     18  HH  TYR A   1     -31.731 -11.700  22.817  0.00  0.00    +0.292 HD
ENDBRANCH  14  17
ENDBRANCH  10  11
ENDBRANCH   5  10
ENDBRANCH   1   5
BRANCH   2  19
ATOM     19  C   UNK A   0     -32.740 -12.142  16.223  0.00  0.00    +0.135 C 
BRANCH  19  20
ATOM     20  C   UNK A   0     -32.513 -12.479  14.760  0.00  0.00    -0.031 A 
ATOM     21  C   UNK A   0     -33.402 -11.978  13.792  0.00  0.00    +0.005 A 
ATOM     22  C   UNK A   0     -33.232 -12.295  12.440  0.00  0.00    +0.000 A 
ATOM     23  C   UNK A   0     -32.182 -13.125  12.041  0.00  0.00    +0.000 A 
ATOM     24  C   UNK A   0     -31.301 -13.644  12.993  0.00  0.00    +0.000 A 
ATOM     25  C   UNK A   0     -31.466 -13.331  14.345  0.00  0.00    +0.005 A 
ENDBRANCH  19  20
BRANCH  19  26
ATOM     26  C   UNK A   0     -31.435 -11.748  16.895  0.00  0.00    -0.031 A 
ATOM     27  C   UNK A   0     -30.767 -10.556  16.548  0.00  0.00    +0.005 A 
ATOM     28  C   UNK A   0     -29.568 -10.207  17.176  0.00  0.00    +0.000 A 
ATOM     29  C   UNK A   0     -29.021 -11.040  18.156  0.00  0.00    +0.000 A 
ATOM     30  C   UNK A   0     -29.675 -12.221  18.511  0.00  0.00    +0.000 A 
ATOM     31  C   UNK A   0     -30.876 -12.575  17.888  0.00  0.00    +0.005 A 
ENDBRANCH  19  26
ENDBRANCH   2  19
TORSDOF 9
ENDMDL
MODEL 9
REMARK VINA RESULT:    -4.502      2.413      5.396
REMARK INTER + INTRA:          -9.537
REMARK INTER:                  -6.825
REMARK INTRA:                  -2.712
REMARK UNBOUND:                -2.930
REMARK  Name = 
REMARK  9 active torsions:
REMARK  status: ('A' for Active; 'I' for Inactive)
REMARK    1  A    between atoms: C_2  and  OXT_3
REMARK    2  A    between atoms: C_2  and  CA_4
REMARK    3  A    between atoms: CA_4  and  CB_5
REMARK    4  A    between atoms: CA_4  and  N_13
REMARK    5  A    between atoms: CB_5  and  CG_6
REMARK    6  A    between atoms: CZ_9  and  OH_10
REMARK    7  A    between atoms: C_14  and  C_16
REMARK    8  A    between atoms: C_16  and  C_17
REMARK    9  A    between atoms: C_16  and  C_23
REMARK                            x       y       z     vdW  Elec       q    Type
REMARK                         _______ _______ _______ _____ _____    ______ ____
ROOT
ATOM      1  N   TYR A   1     -32.684 -10.910  17.511  0.00  0.00    -0.301 N 
ATOM      2  C   UNK A   0     -32.746 -12.130  16.755  0.00  0.00    +0.225 C 
ATOM      3  O   UNK A   0     -33.804 -12.437  16.139  0.00  0.00    -0.275 OA
ATOM      4  H   TYR A   1     -31.801 -10.701  18.032  0.00  0.00    +0.150 HD
ENDROOT
BRANCH   1   5
ATOM      5  CA  TYR A   1     -33.865 -10.077  17.747  0.00  0.00    +0.186 C 
BRANCH   5   7
ATOM      6  O   TYR A   1     -33.634  -8.857  15.688  0.00  0.00    -0.249 OA
ATOM      7  C   TYR A   1     -33.768  -8.808  16.941  0.00  0.00    +0.326 C 
BRANCH   7   8
ATOM      8  OXT TYR A   1     -33.809  -7.575  17.585  0.00  0.00    -0.479 OA
ATOM      9  HXT TYR A   1     -34.689  -7.096  17.732  0.00  0.00    +0.295 HD
ENDBRANCH   7   8
ENDBRANCH   5   7
BRANCH   5  10
ATOM     10  CB  TYR A   1     -33.996  -9.776  19.252  0.00  0.00    +0.069 C 
BRANCH  10  11
ATOM     11  CG  TYR A   1     -32.682  -9.952  19.970  0.00  0.00    -0.045 A 
ATOM     12  CD1 TYR A   1     -31.763  -8.892  20.043  0.00  0.00    +0.007 A 
ATOM     13  CE1 TYR A   1     -30.559  -9.049  20.739  0.00  0.00    +0.045 A 
ATOM     14  CZ  TYR A   1     -30.267 -10.261  21.372  0.00  0.00    +0.117 A 
ATOM     15  CE2 TYR A   1     -31.183 -11.319  21.309  0.00  0.00    +0.045 A 
ATOM     16  CD2 TYR A   1     -32.386 -11.165  20.613  0.00  0.00    +0.007 A 
BRANCH  14  17
ATOM     17  OH  TYR A   1     -29.064 -10.403  22.062  0.00  0.00    -0.507 OA
ATOM     18  HH  TYR A   1     -28.905  -9.941  22.950  0.00  0.00    +0.292 HD
ENDBRANCH  14  17
ENDBRANCH  10  11
ENDBRANCH   5  10
ENDBRANCH   1   5
BRANCH   2  19
ATOM     19  C   UNK A   0     -31.546 -13.052  16.734  0.00  0.00    +0.135 C 
BRANCH  19  20
ATOM     20  C   UNK A   0     -31.206 -13.522  15.330  0.00  0.00    -0.031 A 
ATOM     21  C   UNK A   0     -30.345 -14.622  15.162  0.00  0.00    +0.005 A 
ATOM     22  C   UNK A   0     -29.992 -15.059  13.881  0.00  0.00    +0.000 A 
ATOM     23  C   UNK A   0     -30.484 -14.395  12.754  0.00  0.00    +0.000 A 
ATOM     24  C   UNK A   0     -31.326 -13.291  12.906  0.00  0.00    +0.000 A 
ATOM     25  C   UNK A   0     -31.681 -12.850  14.183  0.00  0.00    +0.005 A 
ENDBRANCH  19  20
BRANCH  19  26
ATOM     26  C   UNK A   0     -30.327 -12.447  17.410  0.00  0.00    -0.031 A 
ATOM     27  C   UNK A   0     -29.940 -11.114  17.161  0.00  0.00    +0.005 A 
ATOM     28  C   UNK A   0     -28.816 -10.572  17.792  0.00  0.00    +0.000 A 
ATOM     29  C   UNK A   0     -28.067 -11.350  18.677  0.00  0.00    +0.000 A 
ATOM     30  C   UNK A   0     -28.441 -12.670  18.935  0.00  0.00    +0.000 A 
ATOM     31  C   UNK A   0     -29.565 -13.218  18.309  0.00  0.00    +0.005 A 
ENDBRANCH  19  26
ENDBRANCH   2  19
TORSDOF 9
ENDMDL
