MODEL 1
REMARK VINA RESULT:    -5.210      0.000      0.000
REMARK INTER + INTRA:          -8.870
REMARK INTER:                  -7.190
REMARK INTRA:                  -1.680
REMARK UNBOUND:                -1.680
REMARK  Name = 
REMARK  9 active torsions:
REMARK  status: ('A' for Active; 'I' for Inactive)
REMARK    1  A    between atoms: C_1  and  C_2
REMARK    2  A    between atoms: C_2  and  C_3
REMARK    3  A    between atoms: C_9  and  C_11
REMARK    4  A    between atoms: N_13  and  C_14
REMARK    5  A    between atoms: C_14  and  C_15
REMARK    6  A    between atoms: C_14  and  C_21
REMARK    7  A    between atoms: C_21  and  C_22
REMARK    8  A    between atoms: C_21  and  C_23
REMARK    9  A    between atoms: C_23  and  O_25
REMARK                            x       y       z     vdW  Elec       q    Type
REMARK                         _______ _______ _______ _____ _____    ______ ____
ROOT
ATOM      1  C   UNL     1     -31.111 -10.334  16.808  0.00  0.00    +0.218 C 
ATOM      2  O   UNL     1     -30.504  -9.386  16.238  0.00  0.00    -0.275 OA
ATOM      3  N   UNL     1     -32.240 -10.956  16.173  0.00  0.00    -0.307 N 
ATOM      4  H   UNL     1     -32.733 -11.721  16.687  0.00  0.00    +0.149 HD
ENDROOT
BRANCH   1  11
ATOM      5  C   UNL     1     -28.164 -13.071  19.694  0.00  0.00    +0.215 C 
ATOM      6  O   UNL     1     -27.485 -13.500  18.721  0.00  0.00    -0.276 OA
ATOM      7  N   UNL     1     -29.464 -12.486  19.461  0.00  0.00    -0.301 N 
ATOM      8  C   UNL     1     -30.576 -12.719  20.396  0.00  0.00    +0.108 C 
ATOM      9  C   UNL     1     -31.474 -11.481  20.482  0.00  0.00    +0.020 C 
ATOM     10  C   UNL     1     -31.922 -11.037  19.087  0.00  0.00    +0.016 C 
ATOM     11  C   UNL     1     -30.700 -10.763  18.193  0.00  0.00    +0.092 C 
ATOM     12  C   UNL     1     -29.800 -12.005  18.112  0.00  0.00    +0.120 C 
BRANCH   5  14
ATOM     13  C   UNL     1     -27.145 -14.605  21.380  0.00  0.00    +0.013 C 
ATOM     14  C   UNL     1     -27.574 -13.173  21.073  0.00  0.00    +0.092 C 
ENDBRANCH   5  14
ENDBRANCH   1  11
BRANCH   3  15
ATOM     15  C   UNL     1     -32.839 -10.453  14.930  0.00  0.00    +0.117 C 
BRANCH  15  16
ATOM     16  C   UNL     1     -32.815 -11.551  13.881  0.00  0.00    -0.026 A 
ATOM     17  C   UNL     1     -31.719 -12.430  13.775  0.00  0.00    +0.005 A 
ATOM     18  C   UNL     1     -31.713 -13.440  12.808  0.00  0.00    +0.000 A 
ATOM     19  C   UNL     1     -32.796 -13.584  11.938  0.00  0.00    +0.000 A 
ATOM     20  C   UNL     1     -33.888 -12.718  12.033  0.00  0.00    +0.000 A 
ATOM     21  C   UNL     1     -33.900 -11.707  12.999  0.00  0.00    +0.005 A 
ENDBRANCH  15  16
BRANCH  15  22
ATOM     22  C   UNL     1     -34.277  -9.936  15.202  0.00  0.00    +0.119 C 
ATOM     23  C   UNL     1     -34.342  -8.400  15.212  0.00  0.00    +0.021 C 
BRANCH  22  24
ATOM     24  C   UNL     1     -34.795 -10.474  16.509  0.00  0.00    +0.310 C 
ATOM     25  O   UNL     1     -34.976  -9.704  17.491  0.00  0.00    -0.251 OA
BRANCH  24  26
ATOM     26  O   UNL     1     -35.049 -11.836  16.643  0.00  0.00    -0.480 OA
ATOM     27  H   UNL     1     -35.306 -12.231  17.539  0.00  0.00    +0.295 HD
ENDBRANCH  24  26
ENDBRANCH  22  24
ENDBRANCH  15  22
ENDBRANCH   3  15
TORSDOF 7
ENDMDL
MODEL 2
REMARK VINA RESULT:    -4.169      2.608      6.904
REMARK INTER + INTRA:          -7.433
REMARK INTER:                  -5.657
REMARK INTRA:                  -1.776
REMARK UNBOUND:                -1.680
REMARK  Name = 
REMARK  9 active torsions:
REMARK  status: ('A' for Active; 'I' for Inactive)
REMARK    1  A    between atoms: C_1  and  C_2
REMARK    2  A    between atoms: C_2  and  C_3
REMARK    3  A    between atoms: C_9  and  C_11
REMARK    4  A    between atoms: N_13  and  C_14
REMARK    5  A    between atoms: C_14  and  C_15
REMARK    6  A    between atoms: C_14  and  C_21
REMARK    7  A    between atoms: C_21  and  C_22
REMARK    8  A    between atoms: C_21  and  C_23
REMARK    9  A    between atoms: C_23  and  O_25
REMARK                            x       y       z     vdW  Elec       q    Type
REMARK                         _______ _______ _______ _____ _____    ______ ____
ROOT
ATOM      1  C   UNL     1     -30.407 -10.440  17.181  0.00  0.00    +0.218 C 
ATOM      2  O   UNL     1     -29.242  -9.960  17.123  0.00  0.00    -0.275 OA
ATOM      3  N   UNL     1     -30.601 -11.848  17.389  0.00  0.00    -0.307 N 
ATOM      4  H   UNL     1     -31.581 -12.212  17.406  0.00  0.00    +0.149 HD
ENDROOT
BRANCH   1  11
ATOM      5  C   UNL     1     -34.077  -7.709  19.075  0.00  0.00    +0.215 C 
ATOM      6  O   UNL     1     -33.698  -7.890  20.264  0.00  0.00    -0.276 OA
ATOM      7  N   UNL     1     -33.606  -8.587  18.029  0.00  0.00    -0.301 N 
ATOM      8  C   UNL     1     -34.497  -9.004  16.934  0.00  0.00    +0.108 C 
ATOM      9  C   UNL     1     -33.709  -9.159  15.630  0.00  0.00    +0.020 C 
ATOM     10  C   UNL     1     -32.503 -10.081  15.830  0.00  0.00    +0.016 C 
ATOM     11  C   UNL     1     -31.598  -9.545  16.953  0.00  0.00    +0.092 C 
ATOM     12  C   UNL     1     -32.393  -9.387  18.259  0.00  0.00    +0.120 C 
BRANCH   5  14
ATOM     13  C   UNL     1     -34.235  -5.243  18.719  0.00  0.00    +0.013 C 
ATOM     14  C   UNL     1     -35.003  -6.559  18.790  0.00  0.00    +0.092 C 
ENDBRANCH   5  14
ENDBRANCH   1  11
BRANCH   3  15
ATOM     15  C   UNL     1     -29.498 -12.817  17.399  0.00  0.00    +0.117 C 
BRANCH  15  16
ATOM     16  C   UNL     1     -28.987 -12.983  18.819  0.00  0.00    -0.026 A 
ATOM     17  C   UNL     1     -29.880 -13.099  19.903  0.00  0.00    +0.005 A 
ATOM     18  C   UNL     1     -29.396 -13.257  21.205  0.00  0.00    +0.000 A 
ATOM     19  C   UNL     1     -28.020 -13.301  21.441  0.00  0.00    +0.000 A 
ATOM     20  C   UNL     1     -27.125 -13.188  20.374  0.00  0.00    +0.000 A 
ATOM     21  C   UNL     1     -27.604 -13.030  19.070  0.00  0.00    +0.005 A 
ENDBRANCH  15  16
BRANCH  15  22
ATOM     22  C   UNL     1     -29.965 -14.164  16.784  0.00  0.00    +0.119 C 
ATOM     23  C   UNL     1     -29.300 -14.436  15.426  0.00  0.00    +0.021 C 
BRANCH  22  24
ATOM     24  C   UNL     1     -31.463 -14.183  16.629  0.00  0.00    +0.310 C 
ATOM     25  O   UNL     1     -32.016 -13.552  15.688  0.00  0.00    -0.251 OA
BRANCH  24  26
ATOM     26  O   UNL     1     -32.243 -14.880  17.547  0.00  0.00    -0.480 OA
ATOM     27  H   UNL     1     -32.780 -15.690  17.264  0.00  0.00    +0.295 HD
ENDBRANCH  24  26
ENDBRANCH  22  24
ENDBRANCH  15  22
ENDBRANCH   3  15
TORSDOF 7
ENDMDL
MODEL 3
REMARK VINA RESULT:    -3.986      2.247      7.037
REMARK INTER + INTRA:          -7.181
REMARK INTER:                  -5.715
REMARK INTRA:                  -1.466
REMARK UNBOUND:                -1.680
REMARK  Name = 
REMARK  9 active torsions:
REMARK  status: ('A' for Active; 'I' for Inactive)
REMARK    1  A    between atoms: C_1  and  C_2
REMARK    2  A    between atoms: C_2  and  C_3
REMARK    3  A    between atoms: C_9  and  C_11
REMARK    4  A    between atoms: N_13  and  C_14
REMARK    5  A    between atoms: C_14  and  C_15
REMARK    6  A    between atoms: C_14  and  C_21
REMARK    7  A    between atoms: C_21  and  C_22
REMARK    8  A    between atoms: C_21  and  C_23
REMARK    9  A    between atoms: C_23  and  O_25
REMARK                            x       y       z     vdW  Elec       q    Type
REMARK                         _______ _______ _______ _____ _____    ______ ____
ROOT
ATOM      1  C   UNL     1     -31.728 -12.671  18.757  0.00  0.00    +0.218 C 
ATOM      2  O   UNL     1     -32.584 -12.659  19.684  0.00  0.00    -0.275 OA
ATOM      3  N   UNL     1     -30.332 -12.519  19.059  0.00  0.00    -0.307 N 
ATOM      4  H   UNL     1     -29.656 -12.508  18.261  0.00  0.00    +0.149 HD
ENDROOT
BRANCH   1  11
ATOM      5  C   UNL     1     -30.606 -13.526  14.012  0.00  0.00    +0.215 C 
ATOM      6  O   UNL     1     -29.411 -13.834  14.273  0.00  0.00    -0.276 OA
ATOM      7  N   UNL     1     -31.388 -12.795  14.982  0.00  0.00    -0.301 N 
ATOM      8  C   UNL     1     -32.335 -11.752  14.558  0.00  0.00    +0.108 C 
ATOM      9  C   UNL     1     -33.555 -11.725  15.484  0.00  0.00    +0.020 C 
ATOM     10  C   UNL     1     -33.123 -11.609  16.948  0.00  0.00    +0.016 C 
ATOM     11  C   UNL     1     -32.180 -12.766  17.322  0.00  0.00    +0.092 C 
ATOM     12  C   UNL     1     -30.959 -12.791  16.389  0.00  0.00    +0.120 C 
BRANCH   5  14
ATOM     13  C   UNL     1     -30.339 -15.062  12.062  0.00  0.00    +0.013 C 
ATOM     14  C   UNL     1     -31.179 -13.954  12.689  0.00  0.00    +0.092 C 
ENDBRANCH   5  14
ENDBRANCH   1  11
BRANCH   3  15
ATOM     15  C   UNL     1     -29.831 -12.201  20.402  0.00  0.00    +0.117 C 
BRANCH  15  16
ATOM     16  C   UNL     1     -28.530 -12.946  20.642  0.00  0.00    -0.026 A 
ATOM     17  C   UNL     1     -27.418 -12.758  19.797  0.00  0.00    +0.005 A 
ATOM     18  C   UNL     1     -26.225 -13.446  20.034  0.00  0.00    +0.000 A 
ATOM     19  C   UNL     1     -26.126 -14.329  21.112  0.00  0.00    +0.000 A 
ATOM     20  C   UNL     1     -27.222 -14.524  21.956  0.00  0.00    +0.000 A 
ATOM     21  C   UNL     1     -28.418 -13.838  21.724  0.00  0.00    +0.005 A 
ENDBRANCH  15  16
BRANCH  15  22
ATOM     22  C   UNL     1     -29.663 -10.666  20.559  0.00  0.00    +0.119 C 
ATOM     23  C   UNL     1     -30.618 -10.089  21.616  0.00  0.00    +0.021 C 
BRANCH  22  24
ATOM     24  C   UNL     1     -29.886  -9.971  19.241  0.00  0.00    +0.310 C 
ATOM     25  O   UNL     1     -30.996  -9.434  18.981  0.00  0.00    -0.251 OA
BRANCH  24  26
ATOM     26  O   UNL     1     -28.867  -9.947  18.293  0.00  0.00    -0.480 OA
ATOM     27  H   UNL     1     -27.924 -10.223  18.536  0.00  0.00    +0.295 HD
ENDBRANCH  24  26
ENDBRANCH  22  24
ENDBRANCH  15  22
ENDBRANCH   3  15
TORSDOF 7
ENDMDL
MODEL 4
REMARK VINA RESULT:    -3.977      3.112      5.782
REMARK INTER + INTRA:          -7.168
REMARK INTER:                  -5.936
REMARK INTRA:                  -1.232
REMARK UNBOUND:                -1.680
REMARK  Name = 
REMARK  9 active torsions:
REMARK  status: ('A' for Active; 'I' for Inactive)
REMARK    1  A    between atoms: C_1  and  C_2
REMARK    2  A    between atoms: C_2  and  C_3
REMARK    3  A    between atoms: C_9  and  C_11
REMARK    4  A    between atoms: N_13  and  C_14
REMARK    5  A    between atoms: C_14  and  C_15
REMARK    6  A    between atoms: C_14  and  C_21
REMARK    7  A    between atoms: C_21  and  C_22
REMARK    8  A    between atoms: C_21  and  C_23
REMARK    9  A    between atoms: C_23  and  O_25
REMARK                            x       y       z     vdW  Elec       q    Type
REMARK                         _______ _______ _______ _____ _____    ______ ____
ROOT
ATOM      1  C   UNL     1     -31.587 -11.886  19.590  0.00  0.00    +0.218 C 
ATOM      2  O   UNL     1     -31.836 -12.962  20.201  0.00  0.00    -0.275 OA
ATOM      3  N   UNL     1     -30.632 -11.867  18.517  0.00  0.00    -0.307 N 
ATOM      4  H   UNL     1     -30.433 -10.952  18.053  0.00  0.00    +0.149 HD
ENDROOT
BRANCH   1  11
ATOM      5  C   UNL     1     -31.121  -7.113  20.819  0.00  0.00    +0.215 C 
ATOM      6  O   UNL     1     -29.891  -7.085  20.540  0.00  0.00    -0.276 OA
ATOM      7  N   UNL     1     -31.781  -8.381  21.026  0.00  0.00    -0.301 N 
ATOM      8  C   UNL     1     -32.814  -8.535  22.062  0.00  0.00    +0.108 C 
ATOM      9  C   UNL     1     -33.890  -9.525  21.606  0.00  0.00    +0.020 C 
ATOM     10  C   UNL     1     -33.259 -10.847  21.161  0.00  0.00    +0.016 C 
ATOM     11  C   UNL     1     -32.234 -10.601  20.041  0.00  0.00    +0.092 C 
ATOM     12  C   UNL     1     -31.158  -9.606  20.501  0.00  0.00    +0.120 C 
BRANCH   5  14
ATOM     13  C   UNL     1     -32.656  -5.540  19.636  0.00  0.00    +0.013 C 
ATOM     14  C   UNL     1     -31.861  -5.807  20.910  0.00  0.00    +0.092 C 
ENDBRANCH   5  14
ENDBRANCH   1  11
BRANCH   3  15
ATOM     15  C   UNL     1     -29.798 -13.024  18.164  0.00  0.00    +0.117 C 
BRANCH  15  16
ATOM     16  C   UNL     1     -29.971 -13.335  16.688  0.00  0.00    -0.026 A 
ATOM     17  C   UNL     1     -29.171 -14.305  16.052  0.00  0.00    +0.005 A 
ATOM     18  C   UNL     1     -29.345 -14.586  14.694  0.00  0.00    +0.000 A 
ATOM     19  C   UNL     1     -30.315 -13.905  13.956  0.00  0.00    +0.000 A 
ATOM     20  C   UNL     1     -31.114 -12.941  14.575  0.00  0.00    +0.000 A 
ATOM     21  C   UNL     1     -30.945 -12.656  15.934  0.00  0.00    +0.005 A 
ENDBRANCH  15  16
BRANCH  15  22
ATOM     22  C   UNL     1     -28.317 -12.745  18.534  0.00  0.00    +0.119 C 
ATOM     23  C   UNL     1     -28.038 -13.007  20.022  0.00  0.00    +0.021 C 
BRANCH  22  24
ATOM     24  C   UNL     1     -27.942 -11.328  18.189  0.00  0.00    +0.310 C 
ATOM     25  O   UNL     1     -28.834 -10.480  17.915  0.00  0.00    -0.251 OA
BRANCH  24  26
ATOM     26  O   UNL     1     -26.600 -10.961  18.144  0.00  0.00    -0.480 OA
ATOM     27  H   UNL     1     -25.987 -11.136  18.930  0.00  0.00    +0.295 HD
ENDBRANCH  24  26
ENDBRANCH  22  24
ENDBRANCH  15  22
ENDBRANCH   3  15
TORSDOF 7
ENDMDL
MODEL 5
REMARK VINA RESULT:    -3.963      2.416      4.158
REMARK INTER + INTRA:          -7.149
REMARK INTER:                  -5.839
REMARK INTRA:                  -1.310
REMARK UNBOUND:                -1.680
REMARK  Name = 
REMARK  9 active torsions:
REMARK  status: ('A' for Active; 'I' for Inactive)
REMARK    1  A    between atoms: C_1  and  C_2
REMARK    2  A    between atoms: C_2  and  C_3
REMARK    3  A    between atoms: C_9  and  C_11
REMARK    4  A    between atoms: N_13  and  C_14
REMARK    5  A    between atoms: C_14  and  C_15
REMARK    6  A    between atoms: C_14  and  C_21
REMARK    7  A    between atoms: C_21  and  C_22
REMARK    8  A    between atoms: C_21  and  C_23
REMARK    9  A    between atoms: C_23  and  O_25
REMARK                            x       y       z     vdW  Elec       q    Type
REMARK                         _______ _______ _______ _____ _____    ______ ____
ROOT
ATOM      1  C   UNL     1     -30.590 -13.252  17.365  0.00  0.00    +0.218 C 
ATOM      2  O   UNL     1     -31.509 -13.966  17.854  0.00  0.00    -0.275 OA
ATOM      3  N   UNL     1     -30.793 -12.563  16.121  0.00  0.00    -0.307 N 
ATOM      4  H   UNL     1     -30.000 -12.003  15.734  0.00  0.00    +0.149 HD
ENDROOT
BRANCH   1  11
ATOM      5  C   UNL     1     -27.821 -14.184  21.361  0.00  0.00    +0.215 C 
ATOM      6  O   UNL     1     -28.758 -14.776  21.964  0.00  0.00    -0.276 OA
ATOM      7  N   UNL     1     -28.119 -13.323  20.241  0.00  0.00    -0.301 N 
ATOM      8  C   UNL     1     -27.375 -12.070  20.031  0.00  0.00    +0.108 C 
ATOM      9  C   UNL     1     -27.210 -11.787  18.535  0.00  0.00    +0.020 C 
ATOM     10  C   UNL     1     -28.563 -11.828  17.822  0.00  0.00    +0.016 C 
ATOM     11  C   UNL     1     -29.248 -13.187  18.047  0.00  0.00    +0.092 C 
ATOM     12  C   UNL     1     -29.409 -13.470  19.549  0.00  0.00    +0.120 C 
BRANCH   5  14
ATOM     13  C   UNL     1     -25.569 -15.062  20.735  0.00  0.00    +0.013 C 
ATOM     14  C   UNL     1     -26.412 -14.418  21.832  0.00  0.00    +0.092 C 
ENDBRANCH   5  14
ENDBRANCH   1  11
BRANCH   3  15
ATOM     15  C   UNL     1     -31.986 -12.751  15.284  0.00  0.00    +0.117 C 
BRANCH  15  16
ATOM     16  C   UNL     1     -32.963 -11.617  15.541  0.00  0.00    -0.026 A 
ATOM     17  C   UNL     1     -32.700 -10.313  15.076  0.00  0.00    +0.005 A 
ATOM     18  C   UNL     1     -33.611  -9.280  15.315  0.00  0.00    +0.000 A 
ATOM     19  C   UNL     1     -34.791  -9.534  16.018  0.00  0.00    +0.000 A 
ATOM     20  C   UNL     1     -35.062 -10.822  16.484  0.00  0.00    +0.000 A 
ATOM     21  C   UNL     1     -34.155 -11.859  16.248  0.00  0.00    +0.005 A 
ENDBRANCH  15  16
BRANCH  15  22
ATOM     22  C   UNL     1     -31.580 -12.846  13.790  0.00  0.00    +0.119 C 
ATOM     23  C   UNL     1     -32.799 -13.043  12.875  0.00  0.00    +0.021 C 
BRANCH  22  24
ATOM     24  C   UNL     1     -30.600 -13.970  13.578  0.00  0.00    +0.310 C 
ATOM     25  O   UNL     1     -30.490 -14.891  14.431  0.00  0.00    -0.251 OA
BRANCH  24  26
ATOM     26  O   UNL     1     -29.790 -13.975  12.446  0.00  0.00    -0.480 OA
ATOM     27  H   UNL     1     -28.915 -13.464  12.431  0.00  0.00    +0.295 HD
ENDBRANCH  24  26
ENDBRANCH  22  24
ENDBRANCH  15  22
ENDBRANCH   3  15
TORSDOF 7
ENDMDL
MODEL 6
REMARK VINA RESULT:    -3.895      2.733      6.851
REMARK INTER + INTRA:          -7.055
REMARK INTER:                  -5.356
REMARK INTRA:                  -1.699
REMARK UNBOUND:                -1.680
REMARK  Name = 
REMARK  9 active torsions:
REMARK  status: ('A' for Active; 'I' for Inactive)
REMARK    1  A    between atoms: C_1  and  C_2
REMARK    2  A    between atoms: C_2  and  C_3
REMARK    3  A    between atoms: C_9  and  C_11
REMARK    4  A    between atoms: N_13  and  C_14
REMARK    5  A    between atoms: C_14  and  C_15
REMARK    6  A    between atoms: C_14  and  C_21
REMARK    7  A    between atoms: C_21  and  C_22
REMARK    8  A    between atoms: C_21  and  C_23
REMARK    9  A    between atoms: C_23  and  O_25
REMARK                            x       y       z     vdW  Elec       q    Type
REMARK                         _______ _______ _______ _____ _____    ______ ____
ROOT
ATOM      1  C   UNL     1     -29.352 -11.184  17.936  0.00  0.00    +0.218 C 
ATOM      2  O   UNL     1     -28.184 -10.917  18.333  0.00  0.00    -0.275 OA
ATOM      3  N   UNL     1     -30.492 -10.687  18.655  0.00  0.00    -0.307 N 
ATOM      4  H   UNL     1     -31.443 -10.951  18.310  0.00  0.00    +0.149 HD
ENDROOT
BRANCH   1  11
ATOM      5  C   UNL     1     -32.015 -12.426  13.951  0.00  0.00    +0.215 C 
ATOM      6  O   UNL     1     -32.799 -11.446  14.079  0.00  0.00    -0.276 OA
ATOM      7  N   UNL     1     -31.199 -12.842  15.068  0.00  0.00    -0.301 N 
ATOM      8  C   UNL     1     -30.943 -14.268  15.327  0.00  0.00    +0.108 C 
ATOM      9  C   UNL     1     -29.537 -14.466  15.901  0.00  0.00    +0.020 C 
ATOM     10  C   UNL     1     -29.316 -13.568  17.121  0.00  0.00    +0.016 C 
ATOM     11  C   UNL     1     -29.551 -12.093  16.750  0.00  0.00    +0.092 C 
ATOM     12  C   UNL     1     -30.961 -11.898  16.171  0.00  0.00    +0.120 C 
BRANCH   5  14
ATOM     13  C   UNL     1     -33.316 -13.125  11.939  0.00  0.00    +0.013 C 
ATOM     14  C   UNL     1     -31.950 -13.118  12.618  0.00  0.00    +0.092 C 
ENDBRANCH   5  14
ENDBRANCH   1  11
BRANCH   3  15
ATOM     15  C   UNL     1     -30.386  -9.984  19.940  0.00  0.00    +0.117 C 
BRANCH  15  16
ATOM     16  C   UNL     1     -31.254  -8.739  19.904  0.00  0.00    -0.026 A 
ATOM     17  C   UNL     1     -30.922  -7.599  20.663  0.00  0.00    +0.005 A 
ATOM     18  C   UNL     1     -31.727  -6.457  20.615  0.00  0.00    +0.000 A 
ATOM     19  C   UNL     1     -32.870  -6.439  19.813  0.00  0.00    +0.000 A 
ATOM     20  C   UNL     1     -33.210  -7.562  19.056  0.00  0.00    +0.000 A 
ATOM     21  C   UNL     1     -32.408  -8.707  19.100  0.00  0.00    +0.005 A 
ENDBRANCH  15  16
BRANCH  15  22
ATOM     22  C   UNL     1     -30.777 -10.936  21.102  0.00  0.00    +0.119 C 
ATOM     23  C   UNL     1     -29.594 -11.206  22.045  0.00  0.00    +0.021 C 
BRANCH  22  24
ATOM     24  C   UNL     1     -31.305 -12.239  20.564  0.00  0.00    +0.310 C 
ATOM     25  O   UNL     1     -30.574 -13.266  20.546  0.00  0.00    -0.251 OA
BRANCH  24  26
ATOM     26  O   UNL     1     -32.600 -12.303  20.058  0.00  0.00    -0.480 OA
ATOM     27  H   UNL     1     -33.198 -13.096  20.258  0.00  0.00    +0.295 HD
ENDBRANCH  24  26
ENDBRANCH  22  24
ENDBRANCH  15  22
ENDBRANCH   3  15
TORSDOF 7
ENDMDL
MODEL 7
REMARK VINA RESULT:    -3.646      2.779      5.274
REMARK INTER + INTRA:          -6.711
REMARK INTER:                  -5.083
REMARK INTRA:                  -1.628
REMARK UNBOUND:                -1.680
REMARK  Name = 
REMARK  9 active torsions:
REMARK  status: ('A' for Active; 'I' for Inactive)
REMARK    1  A    between atoms: C_1  and  C_2
REMARK    2  A    between atoms: C_2  and  C_3
REMARK    3  A    between atoms: C_9  and  C_11
REMARK    4  A    between atoms: N_13  and  C_14
REMARK    5  A    between atoms: C_14  and  C_15
REMARK    6  A    between atoms: C_14  and  C_21
REMARK    7  A    between atoms: C_21  and  C_22
REMARK    8  A    between atoms: C_21  and  C_23
REMARK    9  A    between atoms: C_23  and  O_25
REMARK                            x       y       z     vdW  Elec       q    Type
REMARK                         _______ _______ _______ _____ _____    ______ ____
ROOT
ATOM      1  C   UNL     1     -31.702 -12.032  19.112  0.00  0.00    +0.218 C 
ATOM      2  O   UNL     1     -32.541 -12.851  19.577  0.00  0.00    -0.275 OA
ATOM      3  N   UNL     1     -32.129 -10.739  18.654  0.00  0.00    -0.307 N 
ATOM      4  H   UNL     1     -31.409 -10.098  18.251  0.00  0.00    +0.149 HD
ENDROOT
BRANCH   1  11
ATOM      5  C   UNL     1     -27.715 -14.265  21.016  0.00  0.00    +0.215 C 
ATOM      6  O   UNL     1     -28.333 -14.656  22.044  0.00  0.00    -0.276 OA
ATOM      7  N   UNL     1     -28.265 -13.201  20.209  0.00  0.00    -0.301 N 
ATOM      8  C   UNL     1     -27.391 -12.186  19.598  0.00  0.00    +0.108 C 
ATOM      9  C   UNL     1     -27.946 -11.745  18.241  0.00  0.00    +0.020 C 
ATOM     10  C   UNL     1     -29.407 -11.306  18.369  0.00  0.00    +0.016 C 
ATOM     11  C   UNL     1     -30.259 -12.441  18.964  0.00  0.00    +0.092 C 
ATOM     12  C   UNL     1     -29.697 -12.883  20.323  0.00  0.00    +0.120 C 
BRANCH   5  14
ATOM     13  C   UNL     1     -25.336 -14.624  21.684  0.00  0.00    +0.013 C 
ATOM     14  C   UNL     1     -26.422 -14.945  20.661  0.00  0.00    +0.092 C 
ENDBRANCH   5  14
ENDBRANCH   1  11
BRANCH   3  15
ATOM     15  C   UNL     1     -33.542 -10.348  18.558  0.00  0.00    +0.117 C 
BRANCH  15  16
ATOM     16  C   UNL     1     -33.887  -9.426  19.714  0.00  0.00    -0.026 A 
ATOM     17  C   UNL     1     -33.979  -8.032  19.528  0.00  0.00    +0.005 A 
ATOM     18  C   UNL     1     -34.303  -7.195  20.600  0.00  0.00    +0.000 A 
ATOM     19  C   UNL     1     -34.538  -7.737  21.866  0.00  0.00    +0.000 A 
ATOM     20  C   UNL     1     -34.450  -9.117  22.062  0.00  0.00    +0.000 A 
ATOM     21  C   UNL     1     -34.126  -9.958  20.993  0.00  0.00    +0.005 A 
ENDBRANCH  15  16
BRANCH  15  22
ATOM     22  C   UNL     1     -33.820  -9.690  17.180  0.00  0.00    +0.119 C 
ATOM     23  C   UNL     1     -35.001 -10.354  16.455  0.00  0.00    +0.021 C 
BRANCH  22  24
ATOM     24  C   UNL     1     -32.593  -9.745  16.309  0.00  0.00    +0.310 C 
ATOM     25  O   UNL     1     -32.551 -10.517  15.313  0.00  0.00    -0.251 OA
BRANCH  24  26
ATOM     26  O   UNL     1     -31.488  -8.959  16.622  0.00  0.00    -0.480 OA
ATOM     27  H   UNL     1     -31.211  -8.191  16.024  0.00  0.00    +0.295 HD
ENDBRANCH  24  26
ENDBRANCH  22  24
ENDBRANCH  15  22
ENDBRANCH   3  15
TORSDOF 7
ENDMDL
MODEL 8
REMARK VINA RESULT:    -3.529      2.620      4.552
REMARK INTER + INTRA:          -6.549
REMARK INTER:                  -5.534
REMARK INTRA:                  -1.015
REMARK UNBOUND:                -1.680
REMARK  Name = 
REMARK  9 active torsions:
REMARK  status: ('A' for Active; 'I' for Inactive)
REMARK    1  A    between atoms: C_1  and  C_2
REMARK    2  A    between atoms: C_2  and  C_3
REMARK    3  A    between atoms: C_9  and  C_11
REMARK    4  A    between atoms: N_13  and  C_14
REMARK    5  A    between atoms: C_14  and  C_15
REMARK    6  A    between atoms: C_14  and  C_21
REMARK    7  A    between atoms: C_21  and  C_22
REMARK    8  A    between atoms: C_21  and  C_23
REMARK    9  A    between atoms: C_23  and  O_25
REMARK                            x       y       z     vdW  Elec       q    Type
REMARK                         _______ _______ _______ _____ _____    ______ ____
ROOT
ATOM      1  C   UNL     1     -31.266 -10.438  16.759  0.00  0.00    +0.218 C 
ATOM      2  O   UNL     1     -30.646  -9.651  15.993  0.00  0.00    -0.275 OA
ATOM      3  N   UNL     1     -31.899 -11.614  16.229  0.00  0.00    -0.307 N 
ATOM      4  H   UNL     1     -32.426 -12.229  16.891  0.00  0.00    +0.149 HD
ENDROOT
BRANCH   1  11
ATOM      5  C   UNL     1     -33.061  -7.427  20.255  0.00  0.00    +0.215 C 
ATOM      6  O   UNL     1     -33.681  -6.710  19.423  0.00  0.00    -0.276 OA
ATOM      7  N   UNL     1     -32.000  -8.297  19.802  0.00  0.00    -0.301 N 
ATOM      8  C   UNL     1     -30.784  -8.491  20.609  0.00  0.00    +0.108 C 
ATOM      9  C   UNL     1     -30.260  -9.921  20.455  0.00  0.00    +0.020 C 
ATOM     10  C   UNL     1     -30.084 -10.280  18.978  0.00  0.00    +0.016 C 
ATOM     11  C   UNL     1     -31.412 -10.103  18.221  0.00  0.00    +0.092 C 
ATOM     12  C   UNL     1     -31.937  -8.668  18.380  0.00  0.00    +0.120 C 
BRANCH   5  14
ATOM     13  C   UNL     1     -34.986  -7.343  21.841  0.00  0.00    +0.013 C 
ATOM     14  C   UNL     1     -33.467  -7.356  21.700  0.00  0.00    +0.092 C 
ENDBRANCH   5  14
ENDBRANCH   1  11
BRANCH   3  15
ATOM     15  C   UNL     1     -31.993 -11.897  14.791  0.00  0.00    +0.117 C 
BRANCH  15  16
ATOM     16  C   UNL     1     -31.022 -13.007  14.433  0.00  0.00    -0.026 A 
ATOM     17  C   UNL     1     -30.668 -13.258  13.092  0.00  0.00    +0.005 A 
ATOM     18  C   UNL     1     -29.768 -14.280  12.777  0.00  0.00    +0.000 A 
ATOM     19  C   UNL     1     -29.212 -15.062  13.792  0.00  0.00    +0.000 A 
ATOM     20  C   UNL     1     -29.555 -14.823  15.125  0.00  0.00    +0.000 A 
ATOM     21  C   UNL     1     -30.455 -13.802  15.445  0.00  0.00    +0.005 A 
ENDBRANCH  15  16
BRANCH  15  22
ATOM     22  C   UNL     1     -33.455 -12.254  14.413  0.00  0.00    +0.119 C 
ATOM     23  C   UNL     1     -33.722 -12.065  12.911  0.00  0.00    +0.021 C 
BRANCH  22  24
ATOM     24  C   UNL     1     -34.427 -11.422  15.209  0.00  0.00    +0.310 C 
ATOM     25  O   UNL     1     -35.062 -10.482  14.660  0.00  0.00    -0.251 OA
BRANCH  24  26
ATOM     26  O   UNL     1     -34.602 -11.676  16.566  0.00  0.00    -0.480 OA
ATOM     27  H   UNL     1     -34.163 -11.090  17.265  0.00  0.00    +0.295 HD
ENDBRANCH  24  26
ENDBRANCH  22  24
ENDBRANCH  15  22
ENDBRANCH   3  15
TORSDOF 7
ENDMDL
MODEL 9
REMARK VINA RESULT:    -3.256      2.365      4.670
REMARK INTER + INTRA:          -6.173
REMARK INTER:                  -5.911
REMARK INTRA:                  -0.262
REMARK UNBOUND:                -1.680
REMARK  Name = 
REMARK  9 active torsions:
REMARK  status: ('A' for Active; 'I' for Inactive)
REMARK    1  A    between atoms: C_1  and  C_2
REMARK    2  A    between atoms: C_2  and  C_3
REMARK    3  A    between atoms: C_9  and  C_11
REMARK    4  A    between atoms: N_13  and  C_14
REMARK    5  A    between atoms: C_14  and  C_15
REMARK    6  A    between atoms: C_14  and  C_21
REMARK    7  A    between atoms: C_21  and  C_22
REMARK    8  A    between atoms: C_21  and  C_23
REMARK    9  A    between atoms: C_23  and  O_25
REMARK                            x       y       z     vdW  Elec       q    Type
REMARK                         _______ _______ _______ _____ _____    ______ ____
ROOT
ATOM      1  C   UNL     1     -31.929 -13.127  17.471  0.00  0.00    +0.218 C 
ATOM      2  O   UNL     1     -32.814 -14.027  17.494  0.00  0.00    -0.275 OA
ATOM      3  N   UNL     1     -31.257 -12.804  16.243  0.00  0.00    -0.307 N 
ATOM      4  H   UNL     1     -30.512 -12.071  16.269  0.00  0.00    +0.149 HD
ENDROOT
BRANCH   1  11
ATOM      5  C   UNL     1     -30.980  -8.929  19.916  0.00  0.00    +0.215 C 
ATOM      6  O   UNL     1     -31.313  -8.200  18.942  0.00  0.00    -0.276 OA
ATOM      7  N   UNL     1     -30.677 -10.324  19.697  0.00  0.00    -0.301 N 
ATOM      8  C   UNL     1     -29.590 -10.987  20.436  0.00  0.00    +0.108 C 
ATOM      9  C   UNL     1     -29.946 -12.449  20.719  0.00  0.00    +0.020 C 
ATOM     10  C   UNL     1     -30.346 -13.171  19.429  0.00  0.00    +0.016 C 
ATOM     11  C   UNL     1     -31.521 -12.445  18.751  0.00  0.00    +0.092 C 
ATOM     12  C   UNL     1     -31.162 -10.978  18.472  0.00  0.00    +0.120 C 
BRANCH   5  14
ATOM     13  C   UNL     1     -30.634  -6.815  21.198  0.00  0.00    +0.013 C 
ATOM     14  C   UNL     1     -30.927  -8.310  21.285  0.00  0.00    +0.092 C 
ENDBRANCH   5  14
ENDBRANCH   1  11
BRANCH   3  15
ATOM     15  C   UNL     1     -31.438 -13.571  15.003  0.00  0.00    +0.117 C 
BRANCH  15  16
ATOM     16  C   UNL     1     -32.405 -12.835  14.093  0.00  0.00    -0.026 A 
ATOM     17  C   UNL     1     -32.609 -13.250  12.762  0.00  0.00    +0.005 A 
ATOM     18  C   UNL     1     -33.507 -12.566  11.938  0.00  0.00    +0.000 A 
ATOM     19  C   UNL     1     -34.210 -11.463  12.429  0.00  0.00    +0.000 A 
ATOM     20  C   UNL     1     -34.015 -11.042  13.746  0.00  0.00    +0.000 A 
ATOM     21  C   UNL     1     -33.119 -11.723  14.576  0.00  0.00    +0.005 A 
ENDBRANCH  15  16
BRANCH  15  22
ATOM     22  C   UNL     1     -30.065 -13.815  14.322  0.00  0.00    +0.119 C 
ATOM     23  C   UNL     1     -30.189 -14.722  13.088  0.00  0.00    +0.021 C 
BRANCH  22  24
ATOM     24  C   UNL     1     -29.089 -14.417  15.299  0.00  0.00    +0.310 C 
ATOM     25  O   UNL     1     -27.848 -14.362  15.078  0.00  0.00    -0.251 OA
BRANCH  24  26
ATOM     26  O   UNL     1     -29.561 -15.063  16.438  0.00  0.00    -0.480 OA
ATOM     27  H   UNL     1     -29.013 -15.080  17.289  0.00  0.00    +0.295 HD
ENDBRANCH  24  26
ENDBRANCH  22  24
ENDBRANCH  15  22
ENDBRANCH   3  15
TORSDOF 7
ENDMDL
