MODEL 1
REMARK VINA RESULT:    -4.445      0.000      0.000
REMARK INTER + INTRA:          -7.906
REMARK INTER:                  -6.264
REMARK INTRA:                  -1.642
REMARK UNBOUND:                -1.642
REMARK  Name = 
REMARK  8 active torsions:
REMARK  status: ('A' for Active; 'I' for Inactive)
REMARK    1  A    between atoms: C_1  and  C_2
REMARK    2  A    between atoms: C_8  and  N_9
REMARK    3  A    between atoms: C_10  and  C_12
REMARK    4  A    between atoms: C_12  and  N_13
REMARK    5  A    between atoms: C_14  and  C_16
REMARK    6  A    between atoms: C_20  and  S_22
REMARK    7  A    between atoms: S_22  and  N_25
REMARK    8  A    between atoms: N_25  and  C_26
REMARK                            x       y       z     vdW  Elec       q    Type
REMARK                         _______ _______ _______ _____ _____    ______ ____
ROOT
ATOM      1  C   UNL     1     -33.806  -9.389  16.328  0.00  0.00    +0.039 A 
ATOM      2  C   UNL     1     -34.615  -8.393  15.752  0.00  0.00    +0.013 A 
ATOM      3  C   UNL     1     -35.061  -8.516  14.434  0.00  0.00    +0.003 A 
ATOM      4  C   UNL     1     -34.698  -9.627  13.671  0.00  0.00    +0.029 A 
ATOM      5  C   UNL     1     -33.879 -10.620  14.223  0.00  0.00    +0.109 A 
ATOM      6  C   UNL     1     -33.439 -10.502  15.549  0.00  0.00    +0.041 A 
ENDROOT
BRANCH   1   8
ATOM      7  N   UNL     1     -33.797 -10.141  18.756  0.00  0.00    -0.303 N 
ATOM      8  C   UNL     1     -33.342  -9.246  17.727  0.00  0.00    +0.245 C 
ATOM      9  O   UNL     1     -32.557  -8.303  18.024  0.00  0.00    -0.270 OA
ATOM     10  H   UNL     1     -34.500 -10.881  18.533  0.00  0.00    +0.150 HD
BRANCH   7  11
ATOM     11  C   UNL     1     -33.412  -9.979  20.157  0.00  0.00    +0.200 C 
BRANCH  11  13
ATOM     12  N   UNL     1     -31.421 -11.401  19.465  0.00  0.00    -0.284 N 
ATOM     13  C   UNL     1     -32.006 -10.453  20.372  0.00  0.00    +0.234 C 
ATOM     14  O   UNL     1     -31.351 -10.023  21.360  0.00  0.00    -0.274 OA
ATOM     15  H   UNL     1     -32.004 -11.758  18.675  0.00  0.00    +0.155 HD
BRANCH  12  23
ATOM     16  C   UNL     1     -29.100 -10.515  17.945  0.00  0.00    +0.047 C 
ATOM     17  C   UNL     1     -28.994 -11.589  19.003  0.00  0.00    -0.011 A 
ATOM     18  C   UNL     1     -27.739 -12.153  19.330  0.00  0.00    +0.046 A 
ATOM     19 CL   UNL     1     -26.246 -11.622  18.561  0.00  0.00    -0.083 Cl
ATOM     20  C   UNL     1     -27.653 -13.156  20.302  0.00  0.00    +0.020 A 
ATOM     21  C   UNL     1     -28.796 -13.594  20.967  0.00  0.00    +0.003 A 
ATOM     22  C   UNL     1     -30.035 -13.025  20.677  0.00  0.00    +0.023 A 
ATOM     23  C   UNL     1     -30.147 -12.019  19.704  0.00  0.00    +0.038 A 
ENDBRANCH  12  23
ENDBRANCH  11  13
ENDBRANCH   7  11
ENDBRANCH   1   8
BRANCH   5  24
ATOM     24  S   UNL     1     -33.390 -12.009  13.258  0.00  0.00    +0.072 S 
ATOM     25  O   UNL     1     -34.539 -12.414  12.379  0.00  0.00    -0.150 OA
ATOM     26  O   UNL     1     -32.209 -11.666  12.392  0.00  0.00    -0.150 OA
BRANCH  24  27
ATOM     27  N   UNL     1     -32.968 -13.335  14.295  0.00  0.00    -0.216 N 
ATOM     28  H   UNL     1     -33.756 -13.833  14.768  0.00  0.00    +0.174 HD
BRANCH  27  29
ATOM     29  C   UNL     1     -31.615 -13.680  14.644  0.00  0.00    +0.049 A 
ATOM     30  C   UNL     1     -31.177 -13.712  15.982  0.00  0.00    +0.024 A 
ATOM     31  C   UNL     1     -29.858 -14.063  16.284  0.00  0.00    +0.003 A 
ATOM     32  C   UNL     1     -28.963 -14.380  15.260  0.00  0.00    +0.020 A 
ATOM     33  C   UNL     1     -29.385 -14.344  13.928  0.00  0.00    +0.043 A 
ATOM     34 CL   UNL     1     -28.261 -14.742  12.641  0.00  0.00    -0.083 Cl
ATOM     35  C   UNL     1     -30.704 -13.992  13.622  0.00  0.00    +0.044 A 
ENDBRANCH  27  29
ENDBRANCH  24  27
ENDBRANCH   5  24
TORSDOF 7
ENDMDL
MODEL 2
REMARK VINA RESULT:    -4.262      2.884      6.622
REMARK INTER + INTRA:          -7.648
REMARK INTER:                  -6.417
REMARK INTRA:                  -1.231
REMARK UNBOUND:                -1.642
REMARK  Name = 
REMARK  8 active torsions:
REMARK  status: ('A' for Active; 'I' for Inactive)
REMARK    1  A    between atoms: C_1  and  C_2
REMARK    2  A    between atoms: C_8  and  N_9
REMARK    3  A    between atoms: C_10  and  C_12
REMARK    4  A    between atoms: C_12  and  N_13
REMARK    5  A    between atoms: C_14  and  C_16
REMARK    6  A    between atoms: C_20  and  S_22
REMARK    7  A    between atoms: S_22  and  N_25
REMARK    8  A    between atoms: N_25  and  C_26
REMARK                            x       y       z     vdW  Elec       q    Type
REMARK                         _______ _______ _______ _____ _____    ______ ____
ROOT
ATOM      1  C   UNL     1     -34.108  -7.340  18.512  0.00  0.00    +0.039 A 
ATOM      2  C   UNL     1     -34.864  -6.355  19.173  0.00  0.00    +0.013 A 
ATOM      3  C   UNL     1     -34.424  -5.819  20.386  0.00  0.00    +0.003 A 
ATOM      4  C   UNL     1     -33.232  -6.265  20.960  0.00  0.00    +0.029 A 
ATOM      5  C   UNL     1     -32.476  -7.257  20.323  0.00  0.00    +0.109 A 
ATOM      6  C   UNL     1     -32.911  -7.788  19.101  0.00  0.00    +0.041 A 
ENDROOT
BRANCH   1   8
ATOM      7  N   UNL     1     -34.665  -9.317  17.013  0.00  0.00    -0.303 N 
ATOM      8  C   UNL     1     -34.585  -7.897  17.225  0.00  0.00    +0.245 C 
ATOM      9  O   UNL     1     -34.897  -7.108  16.290  0.00  0.00    -0.270 OA
ATOM     10  H   UNL     1     -34.343  -9.975  17.757  0.00  0.00    +0.150 HD
BRANCH   7  11
ATOM     11  C   UNL     1     -35.062  -9.892  15.730  0.00  0.00    +0.200 C 
BRANCH  11  13
ATOM     12  N   UNL     1     -32.936 -10.845  14.711  0.00  0.00    -0.284 N 
ATOM     13  C   UNL     1     -34.186 -11.059  15.386  0.00  0.00    +0.234 C 
ATOM     14  O   UNL     1     -34.564 -12.226  15.680  0.00  0.00    -0.274 OA
ATOM     15  H   UNL     1     -32.670  -9.868  14.456  0.00  0.00    +0.155 HD
BRANCH  12  23
ATOM     16  C   UNL     1     -30.790 -11.916  16.363  0.00  0.00    +0.047 C 
ATOM     17  C   UNL     1     -31.101 -12.485  14.998  0.00  0.00    -0.011 A 
ATOM     18  C   UNL     1     -30.392 -13.607  14.509  0.00  0.00    +0.046 A 
ATOM     19 CL   UNL     1     -29.147 -14.413  15.460  0.00  0.00    -0.083 Cl
ATOM     20  C   UNL     1     -30.678 -14.118  13.238  0.00  0.00    +0.020 A 
ATOM     21  C   UNL     1     -31.674 -13.541  12.453  0.00  0.00    +0.003 A 
ATOM     22  C   UNL     1     -32.403 -12.455  12.936  0.00  0.00    +0.023 A 
ATOM     23  C   UNL     1     -32.132 -11.923  14.206  0.00  0.00    +0.038 A 
ENDBRANCH  12  23
ENDBRANCH  11  13
ENDBRANCH   7  11
ENDBRANCH   1   8
BRANCH   5  24
ATOM     24  S   UNL     1     -30.988  -7.849  21.056  0.00  0.00    +0.072 S 
ATOM     25  O   UNL     1     -29.982  -8.099  19.969  0.00  0.00    -0.150 OA
ATOM     26  O   UNL     1     -30.429  -6.837  22.018  0.00  0.00    -0.150 OA
BRANCH  24  27
ATOM     27  N   UNL     1     -31.293  -9.332  21.906  0.00  0.00    -0.216 N 
ATOM     28  H   UNL     1     -31.652  -9.250  22.884  0.00  0.00    +0.174 HD
BRANCH  27  29
ATOM     29  C   UNL     1     -30.943 -10.632  21.398  0.00  0.00    +0.049 A 
ATOM     30  C   UNL     1     -31.782 -11.334  20.511  0.00  0.00    +0.024 A 
ATOM     31  C   UNL     1     -31.404 -12.591  20.028  0.00  0.00    +0.003 A 
ATOM     32  C   UNL     1     -30.193 -13.161  20.426  0.00  0.00    +0.020 A 
ATOM     33  C   UNL     1     -29.357 -12.477  21.312  0.00  0.00    +0.043 A 
ATOM     34 CL   UNL     1     -27.835 -13.193  21.811  0.00  0.00    -0.083 Cl
ATOM     35  C   UNL     1     -29.732 -11.220  21.798  0.00  0.00    +0.044 A 
ENDBRANCH  27  29
ENDBRANCH  24  27
ENDBRANCH   5  24
TORSDOF 7
ENDMDL
MODEL 3
REMARK VINA RESULT:    -4.217      3.167      5.755
REMARK INTER + INTRA:          -7.584
REMARK INTER:                  -5.604
REMARK INTRA:                  -1.980
REMARK UNBOUND:                -1.642
REMARK  Name = 
REMARK  8 active torsions:
REMARK  status: ('A' for Active; 'I' for Inactive)
REMARK    1  A    between atoms: C_1  and  C_2
REMARK    2  A    between atoms: C_8  and  N_9
REMARK    3  A    between atoms: C_10  and  C_12
REMARK    4  A    between atoms: C_12  and  N_13
REMARK    5  A    between atoms: C_14  and  C_16
REMARK    6  A    between atoms: C_20  and  S_22
REMARK    7  A    between atoms: S_22  and  N_25
REMARK    8  A    between atoms: N_25  and  C_26
REMARK                            x       y       z     vdW  Elec       q    Type
REMARK                         _______ _______ _______ _____ _____    ______ ____
ROOT
ATOM      1  C   UNL     1     -32.553 -12.084  14.309  0.00  0.00    +0.039 A 
ATOM      2  C   UNL     1     -32.490 -12.619  13.010  0.00  0.00    +0.013 A 
ATOM      3  C   UNL     1     -31.511 -13.558  12.678  0.00  0.00    +0.003 A 
ATOM      4  C   UNL     1     -30.577 -13.967  13.631  0.00  0.00    +0.029 A 
ATOM      5  C   UNL     1     -30.616 -13.432  14.925  0.00  0.00    +0.109 A 
ATOM      6  C   UNL     1     -31.604 -12.497  15.263  0.00  0.00    +0.041 A 
ENDROOT
BRANCH   1   8
ATOM      7  N   UNL     1     -33.253  -9.757  15.058  0.00  0.00    -0.303 N 
ATOM      8  C   UNL     1     -33.599 -11.091  14.649  0.00  0.00    +0.245 C 
ATOM      9  O   UNL     1     -34.812 -11.435  14.607  0.00  0.00    -0.270 OA
ATOM     10  H   UNL     1     -32.250  -9.485  15.163  0.00  0.00    +0.150 HD
BRANCH   7  11
ATOM     11  C   UNL     1     -34.261  -8.781  15.468  0.00  0.00    +0.200 C 
BRANCH  11  13
ATOM     12  N   UNL     1     -33.704  -7.640  17.672  0.00  0.00    -0.284 N 
ATOM     13  C   UNL     1     -34.345  -8.713  16.964  0.00  0.00    +0.234 C 
ATOM     14  O   UNL     1     -34.969  -9.611  17.591  0.00  0.00    -0.274 OA
ATOM     15  H   UNL     1     -33.170  -6.930  17.121  0.00  0.00    +0.155 HD
BRANCH  12  23
ATOM     16  C   UNL     1     -31.294  -8.650  18.958  0.00  0.00    +0.047 C 
ATOM     17  C   UNL     1     -32.432  -8.059  19.757  0.00  0.00    -0.011 A 
ATOM     18  C   UNL     1     -32.329  -7.921  21.160  0.00  0.00    +0.046 A 
ATOM     19 CL   UNL     1     -30.878  -8.392  22.042  0.00  0.00    -0.083 Cl
ATOM     20  C   UNL     1     -33.395  -7.386  21.892  0.00  0.00    +0.020 A 
ATOM     21  C   UNL     1     -34.555  -6.967  21.246  0.00  0.00    +0.003 A 
ATOM     22  C   UNL     1     -34.658  -7.067  19.859  0.00  0.00    +0.023 A 
ATOM     23  C   UNL     1     -33.604  -7.604  19.104  0.00  0.00    +0.038 A 
ENDBRANCH  12  23
ENDBRANCH  11  13
ENDBRANCH   7  11
ENDBRANCH   1   8
BRANCH   5  24
ATOM     24  S   UNL     1     -29.422 -13.918  16.125  0.00  0.00    +0.072 S 
ATOM     25  O   UNL     1     -28.621 -15.062  15.572  0.00  0.00    -0.150 OA
ATOM     26  O   UNL     1     -28.494 -12.779  16.444  0.00  0.00    -0.150 OA
BRANCH  24  27
ATOM     27  N   UNL     1     -30.218 -14.427  17.582  0.00  0.00    -0.216 N 
ATOM     28  H   UNL     1     -30.731 -15.337  17.545  0.00  0.00    +0.174 HD
BRANCH  27  29
ATOM     29  C   UNL     1     -30.328 -13.610  18.761  0.00  0.00    +0.049 A 
ATOM     30  C   UNL     1     -29.231 -13.388  19.616  0.00  0.00    +0.024 A 
ATOM     31  C   UNL     1     -29.373 -12.578  20.747  0.00  0.00    +0.003 A 
ATOM     32  C   UNL     1     -30.604 -11.987  21.040  0.00  0.00    +0.020 A 
ATOM     33  C   UNL     1     -31.700 -12.208  20.202  0.00  0.00    +0.043 A 
ATOM     34 CL   UNL     1     -33.247 -11.466  20.569  0.00  0.00    -0.083 Cl
ATOM     35  C   UNL     1     -31.563 -13.019  19.070  0.00  0.00    +0.044 A 
ENDBRANCH  27  29
ENDBRANCH  24  27
ENDBRANCH   5  24
TORSDOF 7
ENDMDL
MODEL 4
REMARK VINA RESULT:    -4.026      3.354      6.359
REMARK INTER + INTRA:          -7.315
REMARK INTER:                  -5.528
REMARK INTRA:                  -1.787
REMARK UNBOUND:                -1.642
REMARK  Name = 
REMARK  8 active torsions:
REMARK  status: ('A' for Active; 'I' for Inactive)
REMARK    1  A    between atoms: C_1  and  C_2
REMARK    2  A    between atoms: C_8  and  N_9
REMARK    3  A    between atoms: C_10  and  C_12
REMARK    4  A    between atoms: C_12  and  N_13
REMARK    5  A    between atoms: C_14  and  C_16
REMARK    6  A    between atoms: C_20  and  S_22
REMARK    7  A    between atoms: S_22  and  N_25
REMARK    8  A    between atoms: N_25  and  C_26
REMARK                            x       y       z     vdW  Elec       q    Type
REMARK                         _______ _______ _______ _____ _____    ______ ____
ROOT
ATOM      1  C   UNL     1     -30.927  -8.813  20.580  0.00  0.00    +0.039 A 
ATOM      2  C   UNL     1     -30.418  -8.020  21.625  0.00  0.00    +0.013 A 
ATOM      3  C   UNL     1     -31.066  -6.842  22.000  0.00  0.00    +0.003 A 
ATOM      4  C   UNL     1     -32.222  -6.432  21.333  0.00  0.00    +0.029 A 
ATOM      5  C   UNL     1     -32.733  -7.201  20.280  0.00  0.00    +0.109 A 
ATOM      6  C   UNL     1     -32.089  -8.390  19.909  0.00  0.00    +0.041 A 
ENDROOT
BRANCH   1   8
ATOM      7  N   UNL     1     -30.485 -11.298  20.883  0.00  0.00    -0.303 N 
ATOM      8  C   UNL     1     -30.231 -10.062  20.194  0.00  0.00    +0.245 C 
ATOM      9  O   UNL     1     -29.379 -10.031  19.264  0.00  0.00    -0.270 OA
ATOM     10  H   UNL     1     -31.136 -11.318  21.699  0.00  0.00    +0.150 HD
BRANCH   7  11
ATOM     11  C   UNL     1     -29.760 -12.528  20.571  0.00  0.00    +0.200 C 
BRANCH  11  13
ATOM     12  N   UNL     1     -29.463 -12.847  18.065  0.00  0.00    -0.284 N 
ATOM     13  C   UNL     1     -30.223 -13.090  19.260  0.00  0.00    +0.234 C 
ATOM     14  O   UNL     1     -31.289 -13.761  19.216  0.00  0.00    -0.274 OA
ATOM     15  H   UNL     1     -28.601 -12.261  18.135  0.00  0.00    +0.155 HD
BRANCH  12  23
ATOM     16  C   UNL     1     -30.996 -10.919  16.513  0.00  0.00    +0.047 C 
ATOM     17  C   UNL     1     -30.654 -12.285  15.967  0.00  0.00    -0.011 A 
ATOM     18  C   UNL     1     -31.019 -12.644  14.648  0.00  0.00    +0.046 A 
ATOM     19 CL   UNL     1     -31.851 -11.525  13.571  0.00  0.00    -0.083 Cl
ATOM     20  C   UNL     1     -30.710 -13.917  14.157  0.00  0.00    +0.020 A 
ATOM     21  C   UNL     1     -30.025 -14.833  14.952  0.00  0.00    +0.003 A 
ATOM     22  C   UNL     1     -29.631 -14.482  16.242  0.00  0.00    +0.023 A 
ATOM     23  C   UNL     1     -29.933 -13.212  16.759  0.00  0.00    +0.038 A 
ENDBRANCH  12  23
ENDBRANCH  11  13
ENDBRANCH   7  11
ENDBRANCH   1   8
BRANCH   5  24
ATOM     24  S   UNL     1     -34.172  -6.676  19.411  0.00  0.00    +0.072 S 
ATOM     25  O   UNL     1     -35.037  -5.880  20.348  0.00  0.00    -0.150 OA
ATOM     26  O   UNL     1     -33.801  -5.814  18.236  0.00  0.00    -0.150 OA
BRANCH  24  27
ATOM     27  N   UNL     1     -35.061  -8.055  18.845  0.00  0.00    -0.216 N 
ATOM     28  H   UNL     1     -35.616  -8.583  19.556  0.00  0.00    +0.174 HD
BRANCH  27  29
ATOM     29  C   UNL     1     -34.955  -8.582  17.510  0.00  0.00    +0.049 A 
ATOM     30  C   UNL     1     -35.027  -7.752  16.375  0.00  0.00    +0.024 A 
ATOM     31  C   UNL     1     -34.909  -8.298  15.093  0.00  0.00    +0.003 A 
ATOM     32  C   UNL     1     -34.722  -9.672  14.929  0.00  0.00    +0.020 A 
ATOM     33  C   UNL     1     -34.657 -10.506  16.048  0.00  0.00    +0.043 A 
ATOM     34 CL   UNL     1     -34.423 -12.232  15.842  0.00  0.00    -0.083 Cl
ATOM     35  C   UNL     1     -34.777  -9.964  17.332  0.00  0.00    +0.044 A 
ENDBRANCH  27  29
ENDBRANCH  24  27
ENDBRANCH   5  24
TORSDOF 7
ENDMDL
MODEL 5
REMARK VINA RESULT:    -3.925      2.258      6.243
REMARK INTER + INTRA:          -7.173
REMARK INTER:                  -5.670
REMARK INTRA:                  -1.502
REMARK UNBOUND:                -1.642
REMARK  Name = 
REMARK  8 active torsions:
REMARK  status: ('A' for Active; 'I' for Inactive)
REMARK    1  A    between atoms: C_1  and  C_2
REMARK    2  A    between atoms: C_8  and  N_9
REMARK    3  A    between atoms: C_10  and  C_12
REMARK    4  A    between atoms: C_12  and  N_13
REMARK    5  A    between atoms: C_14  and  C_16
REMARK    6  A    between atoms: C_20  and  S_22
REMARK    7  A    between atoms: S_22  and  N_25
REMARK    8  A    between atoms: N_25  and  C_26
REMARK                            x       y       z     vdW  Elec       q    Type
REMARK                         _______ _______ _______ _____ _____    ______ ____
ROOT
ATOM      1  C   UNL     1     -34.327  -8.660  17.856  0.00  0.00    +0.039 A 
ATOM      2  C   UNL     1     -34.771  -7.433  18.381  0.00  0.00    +0.013 A 
ATOM      3  C   UNL     1     -34.665  -7.167  19.748  0.00  0.00    +0.003 A 
ATOM      4  C   UNL     1     -34.127  -8.125  20.610  0.00  0.00    +0.029 A 
ATOM      5  C   UNL     1     -33.696  -9.358  20.106  0.00  0.00    +0.109 A 
ATOM      6  C   UNL     1     -33.791  -9.622  18.732  0.00  0.00    +0.041 A 
ENDROOT
BRANCH   1   8
ATOM      7  N   UNL     1     -34.848 -10.217  15.914  0.00  0.00    -0.303 N 
ATOM      8  C   UNL     1     -34.442  -8.927  16.404  0.00  0.00    +0.245 C 
ATOM      9  O   UNL     1     -34.149  -8.013  15.584  0.00  0.00    -0.270 OA
ATOM     10  H   UNL     1     -35.025 -10.998  16.583  0.00  0.00    +0.150 HD
BRANCH   7  11
ATOM     11  C   UNL     1     -34.899 -10.528  14.487  0.00  0.00    +0.200 C 
BRANCH  11  13
ATOM     12  N   UNL     1     -33.428 -12.543  13.997  0.00  0.00    -0.284 N 
ATOM     13  C   UNL     1     -33.598 -11.117  14.032  0.00  0.00    +0.234 C 
ATOM     14  O   UNL     1     -32.654 -10.351  13.698  0.00  0.00    -0.274 OA
ATOM     15  H   UNL     1     -34.222 -13.146  14.310  0.00  0.00    +0.155 HD
BRANCH  12  23
ATOM     16  C   UNL     1     -31.613 -13.076  16.211  0.00  0.00    +0.047 C 
ATOM     17  C   UNL     1     -31.271 -13.469  14.793  0.00  0.00    -0.011 A 
ATOM     18  C   UNL     1     -30.077 -14.170  14.509  0.00  0.00    +0.046 A 
ATOM     19 CL   UNL     1     -28.950 -14.649  15.776  0.00  0.00    -0.083 Cl
ATOM     20  C   UNL     1     -29.764 -14.517  13.190  0.00  0.00    +0.020 A 
ATOM     21  C   UNL     1     -30.632 -14.194  12.150  0.00  0.00    +0.003 A 
ATOM     22  C   UNL     1     -31.828 -13.530  12.419  0.00  0.00    +0.023 A 
ATOM     23  C   UNL     1     -32.162 -13.168  13.733  0.00  0.00    +0.038 A 
ENDBRANCH  12  23
ENDBRANCH  11  13
ENDBRANCH   7  11
ENDBRANCH   1   8
BRANCH   5  24
ATOM     24  S   UNL     1     -33.045 -10.584  21.190  0.00  0.00    +0.072 S 
ATOM     25  O   UNL     1     -31.998  -9.949  22.062  0.00  0.00    -0.150 OA
ATOM     26  O   UNL     1     -34.129 -11.153  22.062  0.00  0.00    -0.150 OA
BRANCH  24  27
ATOM     27  N   UNL     1     -32.322 -11.867  20.271  0.00  0.00    -0.216 N 
ATOM     28  H   UNL     1     -32.943 -12.665  20.007  0.00  0.00    +0.174 HD
BRANCH  27  29
ATOM     29  C   UNL     1     -30.914 -11.956  19.990  0.00  0.00    +0.049 A 
ATOM     30  C   UNL     1     -30.274 -11.064  19.107  0.00  0.00    +0.024 A 
ATOM     31  C   UNL     1     -28.901 -11.174  18.868  0.00  0.00    +0.003 A 
ATOM     32  C   UNL     1     -28.154 -12.170  19.499  0.00  0.00    +0.020 A 
ATOM     33  C   UNL     1     -28.780 -13.065  20.371  0.00  0.00    +0.043 A 
ATOM     34 CL   UNL     1     -27.842 -14.317  21.165  0.00  0.00    -0.083 Cl
ATOM     35  C   UNL     1     -30.154 -12.960  20.613  0.00  0.00    +0.044 A 
ENDBRANCH  27  29
ENDBRANCH  24  27
ENDBRANCH   5  24
TORSDOF 7
ENDMDL
MODEL 6
REMARK VINA RESULT:    -3.874      2.747      6.230
REMARK INTER + INTRA:          -7.101
REMARK INTER:                  -5.558
REMARK INTRA:                  -1.543
REMARK UNBOUND:                -1.642
REMARK  Name = 
REMARK  8 active torsions:
REMARK  status: ('A' for Active; 'I' for Inactive)
REMARK    1  A    between atoms: C_1  and  C_2
REMARK    2  A    between atoms: C_8  and  N_9
REMARK    3  A    between atoms: C_10  and  C_12
REMARK    4  A    between atoms: C_12  and  N_13
REMARK    5  A    between atoms: C_14  and  C_16
REMARK    6  A    between atoms: C_20  and  S_22
REMARK    7  A    between atoms: S_22  and  N_25
REMARK    8  A    between atoms: N_25  and  C_26
REMARK                            x       y       z     vdW  Elec       q    Type
REMARK                         _______ _______ _______ _____ _____    ______ ____
ROOT
ATOM      1  C   UNL     1     -34.003  -7.881  18.023  0.00  0.00    +0.039 A 
ATOM      2  C   UNL     1     -35.057  -6.983  18.266  0.00  0.00    +0.013 A 
ATOM      3  C   UNL     1     -34.972  -6.055  19.307  0.00  0.00    +0.003 A 
ATOM      4  C   UNL     1     -33.840  -6.018  20.124  0.00  0.00    +0.029 A 
ATOM      5  C   UNL     1     -32.789  -6.916  19.906  0.00  0.00    +0.109 A 
ATOM      6  C   UNL     1     -32.868  -7.841  18.855  0.00  0.00    +0.041 A 
ENDROOT
BRANCH   1   8
ATOM      7  N   UNL     1     -34.267 -10.262  17.171  0.00  0.00    -0.303 N 
ATOM      8  C   UNL     1     -34.105  -8.857  16.914  0.00  0.00    +0.245 C 
ATOM      9  O   UNL     1     -34.017  -8.448  15.722  0.00  0.00    -0.270 OA
ATOM     10  H   UNL     1     -34.271 -10.616  18.154  0.00  0.00    +0.150 HD
BRANCH   7  11
ATOM     11  C   UNL     1     -34.298 -11.254  16.098  0.00  0.00    +0.200 C 
BRANCH  11  13
ATOM     12  N   UNL     1     -32.726 -13.033  15.187  0.00  0.00    -0.284 N 
ATOM     13  C   UNL     1     -32.914 -11.749  15.803  0.00  0.00    +0.234 C 
ATOM     14  O   UNL     1     -31.922 -11.036  16.113  0.00  0.00    -0.274 OA
ATOM     15  H   UNL     1     -33.570 -13.609  14.971  0.00  0.00    +0.155 HD
BRANCH  12  23
ATOM     16  C   UNL     1     -31.566 -13.241  12.524  0.00  0.00    +0.047 C 
ATOM     17  C   UNL     1     -30.828 -13.724  13.750  0.00  0.00    -0.011 A 
ATOM     18  C   UNL     1     -29.515 -14.237  13.644  0.00  0.00    +0.046 A 
ATOM     19 CL   UNL     1     -28.662 -14.311  12.104  0.00  0.00    -0.083 Cl
ATOM     20  C   UNL     1     -28.846 -14.694  14.784  0.00  0.00    +0.020 A 
ATOM     21  C   UNL     1     -29.458 -14.631  16.035  0.00  0.00    +0.003 A 
ATOM     22  C   UNL     1     -30.740 -14.098  16.159  0.00  0.00    +0.023 A 
ATOM     23  C   UNL     1     -31.433 -13.636  15.029  0.00  0.00    +0.038 A 
ENDBRANCH  12  23
ENDBRANCH  11  13
ENDBRANCH   7  11
ENDBRANCH   1   8
BRANCH   5  24
ATOM     24  S   UNL     1     -31.371  -6.899  20.951  0.00  0.00    +0.072 S 
ATOM     25  O   UNL     1     -30.169  -6.534  20.127  0.00  0.00    -0.150 OA
ATOM     26  O   UNL     1     -31.535  -5.888  22.053  0.00  0.00    -0.150 OA
BRANCH  24  27
ATOM     27  N   UNL     1     -31.130  -8.468  21.652  0.00  0.00    -0.216 N 
ATOM     28  H   UNL     1     -30.887  -8.498  22.668  0.00  0.00    +0.174 HD
BRANCH  27  29
ATOM     29  C   UNL     1     -31.101  -9.689  20.891  0.00  0.00    +0.049 A 
ATOM     30  C   UNL     1     -32.050 -10.711  21.089  0.00  0.00    +0.024 A 
ATOM     31  C   UNL     1     -31.998 -11.879  20.322  0.00  0.00    +0.003 A 
ATOM     32  C   UNL     1     -31.003 -12.043  19.357  0.00  0.00    +0.020 A 
ATOM     33  C   UNL     1     -30.052 -11.038  19.158  0.00  0.00    +0.043 A 
ATOM     34 CL   UNL     1     -28.801 -11.243  17.945  0.00  0.00    -0.083 Cl
ATOM     35  C   UNL     1     -30.099  -9.869  19.924  0.00  0.00    +0.044 A 
ENDBRANCH  27  29
ENDBRANCH  24  27
ENDBRANCH   5  24
TORSDOF 7
ENDMDL
MODEL 7
REMARK VINA RESULT:    -3.776      3.572      8.243
REMARK INTER + INTRA:          -6.963
REMARK INTER:                  -5.986
REMARK INTRA:                  -0.978
REMARK UNBOUND:                -1.642
REMARK  Name = 
REMARK  8 active torsions:
REMARK  status: ('A' for Active; 'I' for Inactive)
REMARK    1  A    between atoms: C_1  and  C_2
REMARK    2  A    between atoms: C_8  and  N_9
REMARK    3  A    between atoms: C_10  and  C_12
REMARK    4  A    between atoms: C_12  and  N_13
REMARK    5  A    between atoms: C_14  and  C_16
REMARK    6  A    between atoms: C_20  and  S_22
REMARK    7  A    between atoms: S_22  and  N_25
REMARK    8  A    between atoms: N_25  and  C_26
REMARK                            x       y       z     vdW  Elec       q    Type
REMARK                         _______ _______ _______ _____ _____    ______ ____
ROOT
ATOM      1  C   UNL     1     -30.213 -11.720  19.367  0.00  0.00    +0.039 A 
ATOM      2  C   UNL     1     -29.317 -11.754  20.450  0.00  0.00    +0.013 A 
ATOM      3  C   UNL     1     -29.726 -11.342  21.721  0.00  0.00    +0.003 A 
ATOM      4  C   UNL     1     -31.028 -10.882  21.925  0.00  0.00    +0.029 A 
ATOM      5  C   UNL     1     -31.928 -10.826  20.854  0.00  0.00    +0.109 A 
ATOM      6  C   UNL     1     -31.522 -11.249  19.580  0.00  0.00    +0.041 A 
ENDROOT
BRANCH   1   8
ATOM      7  N   UNL     1     -29.748 -13.556  17.670  0.00  0.00    -0.303 N 
ATOM      8  C   UNL     1     -29.768 -12.163  18.025  0.00  0.00    +0.245 C 
ATOM      9  O   UNL     1     -29.371 -11.301  17.192  0.00  0.00    -0.270 OA
ATOM     10  H   UNL     1     -30.009 -14.279  18.376  0.00  0.00    +0.150 HD
BRANCH   7  11
ATOM     11  C   UNL     1     -29.246 -14.025  16.380  0.00  0.00    +0.200 C 
BRANCH  11  13
ATOM     12  N   UNL     1     -30.815 -12.591  14.984  0.00  0.00    -0.284 N 
ATOM     13  C   UNL     1     -30.303 -13.889  15.326  0.00  0.00    +0.234 C 
ATOM     14  O   UNL     1     -30.746 -14.923  14.756  0.00  0.00    -0.274 OA
ATOM     15  H   UNL     1     -30.446 -11.760  15.499  0.00  0.00    +0.155 HD
BRANCH  12  23
ATOM     16  C   UNL     1     -32.726 -10.468  15.550  0.00  0.00    +0.047 C 
ATOM     17  C   UNL     1     -32.868 -11.361  14.340  0.00  0.00    -0.011 A 
ATOM     18  C   UNL     1     -33.908 -11.147  13.406  0.00  0.00    +0.046 A 
ATOM     19 CL   UNL     1     -35.061  -9.826  13.578  0.00  0.00    -0.083 Cl
ATOM     20  C   UNL     1     -34.038 -11.988  12.296  0.00  0.00    +0.020 A 
ATOM     21  C   UNL     1     -33.137 -13.031  12.091  0.00  0.00    +0.003 A 
ATOM     22  C   UNL     1     -32.088 -13.234  12.986  0.00  0.00    +0.023 A 
ATOM     23  C   UNL     1     -31.939 -12.405  14.109  0.00  0.00    +0.038 A 
ENDBRANCH  12  23
ENDBRANCH  11  13
ENDBRANCH   7  11
ENDBRANCH   1   8
BRANCH   5  24
ATOM     24  S   UNL     1     -33.562 -10.216  21.096  0.00  0.00    +0.072 S 
ATOM     25  O   UNL     1     -34.250 -10.140  19.762  0.00  0.00    -0.150 OA
ATOM     26  O   UNL     1     -34.344 -11.131  21.998  0.00  0.00    -0.150 OA
BRANCH  24  27
ATOM     27  N   UNL     1     -33.508  -8.632  21.803  0.00  0.00    -0.216 N 
ATOM     28  H   UNL     1     -33.951  -8.520  22.743  0.00  0.00    +0.174 HD
BRANCH  27  29
ATOM     29  C   UNL     1     -33.027  -7.464  21.114  0.00  0.00    +0.049 A 
ATOM     30  C   UNL     1     -33.827  -6.765  20.189  0.00  0.00    +0.024 A 
ATOM     31  C   UNL     1     -33.331  -5.626  19.547  0.00  0.00    +0.003 A 
ATOM     32  C   UNL     1     -32.036  -5.176  19.815  0.00  0.00    +0.020 A 
ATOM     33  C   UNL     1     -31.231  -5.867  20.725  0.00  0.00    +0.043 A 
ATOM     34 CL   UNL     1     -29.605  -5.302  21.062  0.00  0.00    -0.083 Cl
ATOM     35  C   UNL     1     -31.724  -7.007  21.368  0.00  0.00    +0.044 A 
ENDBRANCH  27  29
ENDBRANCH  24  27
ENDBRANCH   5  24
TORSDOF 7
ENDMDL
MODEL 8
REMARK VINA RESULT:    -3.736      3.491      8.126
REMARK INTER + INTRA:          -6.907
REMARK INTER:                  -6.351
REMARK INTRA:                  -0.557
REMARK UNBOUND:                -1.642
REMARK  Name = 
REMARK  8 active torsions:
REMARK  status: ('A' for Active; 'I' for Inactive)
REMARK    1  A    between atoms: C_1  and  C_2
REMARK    2  A    between atoms: C_8  and  N_9
REMARK    3  A    between atoms: C_10  and  C_12
REMARK    4  A    between atoms: C_12  and  N_13
REMARK    5  A    between atoms: C_14  and  C_16
REMARK    6  A    between atoms: C_20  and  S_22
REMARK    7  A    between atoms: S_22  and  N_25
REMARK    8  A    between atoms: N_25  and  C_26
REMARK                            x       y       z     vdW  Elec       q    Type
REMARK                         _______ _______ _______ _____ _____    ______ ____
ROOT
ATOM      1  C   UNL     1     -30.127 -13.170  18.872  0.00  0.00    +0.039 A 
ATOM      2  C   UNL     1     -28.947 -13.196  19.638  0.00  0.00    +0.013 A 
ATOM      3  C   UNL     1     -28.855 -12.460  20.822  0.00  0.00    +0.003 A 
ATOM      4  C   UNL     1     -29.931 -11.681  21.251  0.00  0.00    +0.029 A 
ATOM      5  C   UNL     1     -31.107 -11.631  20.491  0.00  0.00    +0.109 A 
ATOM      6  C   UNL     1     -31.205 -12.378  19.309  0.00  0.00    +0.041 A 
ENDROOT
BRANCH   1   8
ATOM      7  N   UNL     1     -29.132 -13.968  16.672  0.00  0.00    -0.303 N 
ATOM      8  C   UNL     1     -30.212 -13.958  17.621  0.00  0.00    +0.245 C 
ATOM      9  O   UNL     1     -31.266 -14.607  17.372  0.00  0.00    -0.270 OA
ATOM     10  H   UNL     1     -28.286 -13.379  16.838  0.00  0.00    +0.150 HD
BRANCH   7  11
ATOM     11  C   UNL     1     -29.219 -14.678  15.398  0.00  0.00    +0.200 C 
BRANCH  11  13
ATOM     12  N   UNL     1     -31.389 -13.434  14.936  0.00  0.00    -0.284 N 
ATOM     13  C   UNL     1     -30.139 -13.956  14.459  0.00  0.00    +0.234 C 
ATOM     14  O   UNL     1     -29.811 -13.827  13.248  0.00  0.00    -0.274 OA
ATOM     15  H   UNL     1     -31.641 -13.587  15.939  0.00  0.00    +0.155 HD
BRANCH  12  23
ATOM     16  C   UNL     1     -32.811 -11.023  15.738  0.00  0.00    +0.047 C 
ATOM     17  C   UNL     1     -33.072 -11.693  14.409  0.00  0.00    -0.011 A 
ATOM     18  C   UNL     1     -33.976 -11.125  13.483  0.00  0.00    +0.046 A 
ATOM     19 CL   UNL     1     -34.815  -9.609  13.804  0.00  0.00    -0.083 Cl
ATOM     20  C   UNL     1     -34.220 -11.761  12.261  0.00  0.00    +0.020 A 
ATOM     21  C   UNL     1     -33.562 -12.946  11.938  0.00  0.00    +0.003 A 
ATOM     22  C   UNL     1     -32.644 -13.500  12.828  0.00  0.00    +0.023 A 
ATOM     23  C   UNL     1     -32.385 -12.882  14.062  0.00  0.00    +0.038 A 
ENDBRANCH  12  23
ENDBRANCH  11  13
ENDBRANCH   7  11
ENDBRANCH   1   8
BRANCH   5  24
ATOM     24  S   UNL     1     -32.458 -10.627  21.008  0.00  0.00    +0.072 S 
ATOM     25  O   UNL     1     -33.240 -11.370  22.053  0.00  0.00    -0.150 OA
ATOM     26  O   UNL     1     -31.966  -9.332  21.594  0.00  0.00    -0.150 OA
BRANCH  24  27
ATOM     27  N   UNL     1     -33.493 -10.282  19.657  0.00  0.00    -0.216 N 
ATOM     28  H   UNL     1     -33.653 -11.058  18.976  0.00  0.00    +0.174 HD
BRANCH  27  29
ATOM     29  C   UNL     1     -34.006  -8.971  19.357  0.00  0.00    +0.049 A 
ATOM     30  C   UNL     1     -34.286  -8.033  20.368  0.00  0.00    +0.024 A 
ATOM     31  C   UNL     1     -34.773  -6.764  20.038  0.00  0.00    +0.003 A 
ATOM     32  C   UNL     1     -34.990  -6.421  18.701  0.00  0.00    +0.020 A 
ATOM     33  C   UNL     1     -34.724  -7.348  17.690  0.00  0.00    +0.043 A 
ATOM     34 CL   UNL     1     -34.996  -6.917  16.012  0.00  0.00    -0.083 Cl
ATOM     35  C   UNL     1     -34.237  -8.618  18.017  0.00  0.00    +0.044 A 
ENDBRANCH  27  29
ENDBRANCH  24  27
ENDBRANCH   5  24
TORSDOF 7
ENDMDL
MODEL 9
REMARK VINA RESULT:    -3.611      3.180      6.147
REMARK INTER + INTRA:          -6.731
REMARK INTER:                  -6.402
REMARK INTRA:                  -0.329
REMARK UNBOUND:                -1.642
REMARK  Name = 
REMARK  8 active torsions:
REMARK  status: ('A' for Active; 'I' for Inactive)
REMARK    1  A    between atoms: C_1  and  C_2
REMARK    2  A    between atoms: C_8  and  N_9
REMARK    3  A    between atoms: C_10  and  C_12
REMARK    4  A    between atoms: C_12  and  N_13
REMARK    5  A    between atoms: C_14  and  C_16
REMARK    6  A    between atoms: C_20  and  S_22
REMARK    7  A    between atoms: S_22  and  N_25
REMARK    8  A    between atoms: N_25  and  C_26
REMARK                            x       y       z     vdW  Elec       q    Type
REMARK                         _______ _______ _______ _____ _____    ______ ____
ROOT
ATOM      1  C   UNL     1     -30.918 -10.060  20.394  0.00  0.00    +0.039 A 
ATOM      2  C   UNL     1     -30.282 -10.278  21.630  0.00  0.00    +0.013 A 
ATOM      3  C   UNL     1     -29.449 -11.385  21.812  0.00  0.00    +0.003 A 
ATOM      4  C   UNL     1     -29.249 -12.293  20.770  0.00  0.00    +0.029 A 
ATOM      5  C   UNL     1     -29.888 -12.099  19.539  0.00  0.00    +0.109 A 
ATOM      6  C   UNL     1     -30.715 -10.983  19.352  0.00  0.00    +0.041 A 
ENDROOT
BRANCH   1   8
ATOM      7  N   UNL     1     -33.108  -8.833  20.798  0.00  0.00    -0.303 N 
ATOM      8  C   UNL     1     -31.795  -8.880  20.214  0.00  0.00    +0.245 C 
ATOM      9  O   UNL     1     -31.392  -7.914  19.508  0.00  0.00    -0.270 OA
ATOM     10  H   UNL     1     -33.476  -9.656  21.325  0.00  0.00    +0.150 HD
BRANCH   7  11
ATOM     11  C   UNL     1     -34.021  -7.714  20.575  0.00  0.00    +0.200 C 
BRANCH  11  13
ATOM     12  N   UNL     1     -34.200  -8.775  18.271  0.00  0.00    -0.284 N 
ATOM     13  C   UNL     1     -34.428  -7.649  19.134  0.00  0.00    +0.234 C 
ATOM     14  O   UNL     1     -34.956  -6.595  18.685  0.00  0.00    -0.274 OA
ATOM     15  H   UNL     1     -33.733  -9.620  18.670  0.00  0.00    +0.155 HD
BRANCH  12  23
ATOM     16  C   UNL     1     -33.867 -11.197  16.689  0.00  0.00    +0.047 C 
ATOM     17  C   UNL     1     -34.287  -9.890  16.060  0.00  0.00    -0.011 A 
ATOM     18  C   UNL     1     -34.595  -9.821  14.681  0.00  0.00    +0.046 A 
ATOM     19 CL   UNL     1     -34.540 -11.242  13.640  0.00  0.00    -0.083 Cl
ATOM     20  C   UNL     1     -34.970  -8.603  14.106  0.00  0.00    +0.020 A 
ATOM     21  C   UNL     1     -35.062  -7.452  14.886  0.00  0.00    +0.003 A 
ATOM     22  C   UNL     1     -34.793  -7.511  16.252  0.00  0.00    +0.023 A 
ATOM     23  C   UNL     1     -34.411  -8.722  16.852  0.00  0.00    +0.038 A 
ENDBRANCH  12  23
ENDBRANCH  11  13
ENDBRANCH   7  11
ENDBRANCH   1   8
BRANCH   5  24
ATOM     24  S   UNL     1     -29.666 -13.256  18.230  0.00  0.00    +0.072 S 
ATOM     25  O   UNL     1     -28.194 -13.456  18.008  0.00  0.00    -0.150 OA
ATOM     26  O   UNL     1     -30.294 -14.578  18.576  0.00  0.00    -0.150 OA
BRANCH  24  27
ATOM     27  N   UNL     1     -30.387 -12.649  16.772  0.00  0.00    -0.216 N 
ATOM     28  H   UNL     1     -31.000 -11.808  16.865  0.00  0.00    +0.174 HD
BRANCH  27  29
ATOM     29  C   UNL     1     -30.305 -13.317  15.500  0.00  0.00    +0.049 A 
ATOM     30  C   UNL     1     -29.382 -14.355  15.264  0.00  0.00    +0.024 A 
ATOM     31  C   UNL     1     -29.339 -14.989  14.019  0.00  0.00    +0.003 A 
ATOM     32  C   UNL     1     -30.207 -14.595  12.998  0.00  0.00    +0.020 A 
ATOM     33  C   UNL     1     -31.120 -13.560  13.219  0.00  0.00    +0.043 A 
ATOM     34 CL   UNL     1     -32.211 -13.065  11.938  0.00  0.00    -0.083 Cl
ATOM     35  C   UNL     1     -31.166 -12.922  14.464  0.00  0.00    +0.044 A 
ENDBRANCH  27  29
ENDBRANCH  24  27
ENDBRANCH   5  24
TORSDOF 7
ENDMDL
