MODEL 1
REMARK VINA RESULT:     9.003      0.000      0.000
REMARK INTER + INTRA:          16.448
REMARK INTER:                  12.688
REMARK INTRA:                   3.761
REMARK UNBOUND:                 3.761
REMARK  Name = 
REMARK  10 active torsions:
REMARK  status: ('A' for Active; 'I' for Inactive)
REMARK    1  A    between atoms: C_1  and  C_2
REMARK    2  A    between atoms: N_4  and  C_5
REMARK    3  A    between atoms: C_8  and  N_11
REMARK    4  A    between atoms: C_12  and  C_14
REMARK    5  A    between atoms: C_17  and  C_20
REMARK    6  A    between atoms: C_20  and  N_21
REMARK    7  A    between atoms: N_21  and  S_22
REMARK    8  A    between atoms: S_22  and  C_25
REMARK    9  A    between atoms: C_28  and  C_29
REMARK   10  A    between atoms: C_30  and  C_31
REMARK                            x       y       z     vdW  Elec       q    Type
REMARK                         _______ _______ _______ _____ _____    ______ ____
ROOT
ATOM      1  C   UNL     1     -32.089 -12.709  15.484  0.00  0.00    +0.037 A 
ATOM      2  C   UNL     1     -31.978 -12.188  14.182  0.00  0.00    +0.013 A 
ATOM      3  C   UNL     1     -31.401 -12.951  13.162  0.00  0.00    +0.006 A 
ATOM      4  C   UNL     1     -30.935 -14.248  13.422  0.00  0.00    -0.032 A 
ATOM      5  C   UNL     1     -31.041 -14.769  14.719  0.00  0.00    +0.006 A 
ATOM      6  C   UNL     1     -31.625 -14.012  15.739  0.00  0.00    +0.013 A 
ENDROOT
BRANCH   1   8
ATOM      7  N   UNL     1     -32.763 -10.484  16.519  0.00  0.00    -0.282 N 
ATOM      8  C   UNL     1     -32.702 -11.922  16.580  0.00  0.00    +0.248 C 
ATOM      9  O   UNL     1     -33.180 -12.533  17.574  0.00  0.00    -0.270 OA
ATOM     10  H   UNL     1     -32.509 -10.005  15.626  0.00  0.00    +0.155 HD
BRANCH   7  14
ATOM     11  C   UNL     1     -34.090  -7.930  19.662  0.00  0.00    +0.033 A 
ATOM     12  C   UNL     1     -32.740  -8.321  19.596  0.00  0.00    +0.025 A 
ATOM     13  C   UNL     1     -32.295  -9.157  18.565  0.00  0.00    +0.025 A 
ATOM     14  C   UNL     1     -33.198  -9.647  17.604  0.00  0.00    +0.034 A 
ATOM     15  C   UNL     1     -34.544  -9.257  17.674  0.00  0.00    +0.025 A 
ATOM     16  C   UNL     1     -34.987  -8.420  18.701  0.00  0.00    +0.025 A 
BRANCH  11  20
ATOM     17  C   UNL     1     -34.712  -4.938  22.062  0.00  0.00    +0.109 C 
ATOM     18  C   UNL     1     -34.281  -5.683  20.840  0.00  0.00    +0.214 C 
ATOM     19  O   UNL     1     -33.736  -5.053  19.894  0.00  0.00    -0.276 OA
ATOM     20  N   UNL     1     -34.582  -7.083  20.716  0.00  0.00    -0.286 N 
ATOM     21  H   UNL     1     -35.281  -7.487  21.381  0.00  0.00    +0.155 HD
ENDBRANCH  11  20
ENDBRANCH   7  14
ENDBRANCH   1   8
BRANCH   4  22
ATOM     22  C   UNL     1     -30.282 -15.048  12.328  0.00  0.00    +0.141 C 
BRANCH  22  23
ATOM     23  N   UNL     1     -28.830 -15.059  12.518  0.00  0.00    -0.186 NA
ATOM     24  H   UNL     1     -28.380 -15.226  11.588  0.00  0.00    +0.148 HD
BRANCH  23  25
ATOM     25  S   UNL     1     -28.294 -13.496  13.052  0.00  0.00    +0.059 S 
ATOM     26  O   UNL     1     -29.126 -12.426  12.400  0.00  0.00    -0.153 OA
ATOM     27  O   UNL     1     -26.862 -13.299  12.642  0.00  0.00    -0.153 OA
BRANCH  25  28
ATOM     28  C   UNL     1     -28.411 -13.367  14.807  0.00  0.00    +0.106 A 
ATOM     29  C   UNL     1     -28.282 -14.512  15.599  0.00  0.00    +0.029 A 
ATOM     30  C   UNL     1     -28.393 -14.424  16.987  0.00  0.00    +0.005 A 
ATOM     31  C   UNL     1     -28.642 -13.187  17.608  0.00  0.00    -0.047 A 
ATOM     32  C   UNL     1     -28.759 -13.123  19.110  0.00  0.00    +0.044 C 
ATOM     33  C   UNL     1     -28.776 -12.024  16.810  0.00  0.00    -0.046 A 
ATOM     34  C   UNL     1     -29.051 -10.678  17.431  0.00  0.00    +0.044 C 
ATOM     35  C   UNL     1     -28.664 -12.129  15.412  0.00  0.00    +0.032 A 
ENDBRANCH  25  28
ENDBRANCH  23  25
ENDBRANCH  22  23
ENDBRANCH   4  22
TORSDOF 7
ENDMDL
