MODEL 1
REMARK VINA RESULT:    -5.199      0.000      0.000
REMARK INTER + INTRA:          -9.320
REMARK INTER:                  -7.023
REMARK INTRA:                  -2.297
REMARK UNBOUND:                -2.297
REMARK  Name = 
REMARK  9 active torsions:
REMARK  status: ('A' for Active; 'I' for Inactive)
REMARK    1  A    between atoms: C_1  and  C_2
REMARK    2  A    between atoms: C_6  and  C_9
REMARK    3  A    between atoms: C_7  and  C_8
REMARK    4  A    between atoms: C_9  and  C_10
REMARK    5  A    between atoms: C_9  and  N_11
REMARK    6  A    between atoms: C_12  and  C_14
REMARK    7  A    between atoms: C_19  and  O_20
REMARK    8  A    between atoms: O_20  and  C_21
REMARK    9  A    between atoms: C_21  and  C_22
REMARK                            x       y       z     vdW  Elec       q    Type
REMARK                         _______ _______ _______ _____ _____    ______ ____
ROOT
ATOM      1  N   UNL     1     -31.271 -11.509  16.580  0.00  0.00    -0.305 N 
ATOM      2  C   UNL     1     -32.575 -11.866  16.095  0.00  0.00    +0.248 C 
ATOM      3  O   UNL     1     -33.537 -11.978  16.904  0.00  0.00    -0.270 OA
ATOM      4  H   UNL     1     -30.445 -11.673  15.959  0.00  0.00    +0.150 HD
ENDROOT
BRANCH   2   5
ATOM      5  C   UNL     1     -32.800 -12.140  14.657  0.00  0.00    +0.078 A 
ATOM      6  C   UNL     1     -34.028 -11.778  14.075  0.00  0.00    +0.017 A 
ATOM      7  C   UNL     1     -34.276 -12.030  12.726  0.00  0.00    +0.001 A 
ATOM      8  C   UNL     1     -33.301 -12.640  11.939  0.00  0.00    +0.004 A 
ATOM      9  C   UNL     1     -32.069 -12.991  12.495  0.00  0.00    +0.046 A 
ATOM     10  C   UNL     1     -31.798 -12.735  13.855  0.00  0.00    +0.133 A 
BRANCH  10  11
ATOM     11  O   UNL     1     -30.548 -13.032  14.429  0.00  0.00    -0.482 OA
BRANCH  11  12
ATOM     12  C   UNL     1     -29.948 -14.325  14.497  0.00  0.00    +0.324 C 
BRANCH  12  13
ATOM     13  C   UNL     1     -29.201 -14.494  15.785  0.00  0.00    +0.248 C 
ATOM     14  N   UNL     1     -29.897 -14.799  16.994  0.00  0.00    -0.327 N 
ATOM     15  O   UNL     1     -27.951 -14.336  15.807  0.00  0.00    -0.272 OA
ATOM     16  H   UNL     1     -30.935 -14.915  16.999  0.00  0.00    +0.145 HD
ATOM     17  H   UNL     1     -29.372 -14.908  17.890  0.00  0.00    +0.145 HD
ENDBRANCH  12  13
ENDBRANCH  11  12
ENDBRANCH  10  11
ENDBRANCH   2   5
BRANCH   1  18
ATOM     18  C   UNL     1     -31.056 -10.955  17.920  0.00  0.00    +0.101 C 
ATOM     19  C   UNL     1     -31.096  -9.420  17.871  0.00  0.00    +0.033 C 
BRANCH  18  25
ATOM     20  C   UNL     1     -28.403 -13.709  21.366  0.00  0.00    +0.044 C 
ATOM     21  C   UNL     1     -28.491 -12.826  20.147  0.00  0.00    -0.047 A 
ATOM     22  C   UNL     1     -27.298 -12.446  19.514  0.00  0.00    +0.003 A 
ATOM     23  C   UNL     1     -27.321 -11.640  18.383  0.00  0.00    +0.001 A 
ATOM     24  C   UNL     1     -28.530 -11.173  17.880  0.00  0.00    +0.006 A 
ATOM     25  C   UNL     1     -29.751 -11.497  18.506  0.00  0.00    -0.024 A 
ATOM     26  C   UNL     1     -29.739 -12.400  19.611  0.00  0.00    -0.043 A 
ATOM     27  C   UNL     1     -31.040 -12.877  20.224  0.00  0.00    +0.044 C 
ENDBRANCH  18  25
ENDBRANCH   1  18
TORSDOF 6
ENDMDL
MODEL 2
REMARK VINA RESULT:    -4.509      2.039      3.370
REMARK INTER + INTRA:          -8.387
REMARK INTER:                  -6.224
REMARK INTRA:                  -2.164
REMARK UNBOUND:                -2.297
REMARK  Name = 
REMARK  9 active torsions:
REMARK  status: ('A' for Active; 'I' for Inactive)
REMARK    1  A    between atoms: C_1  and  C_2
REMARK    2  A    between atoms: C_6  and  C_9
REMARK    3  A    between atoms: C_7  and  C_8
REMARK    4  A    between atoms: C_9  and  C_10
REMARK    5  A    between atoms: C_9  and  N_11
REMARK    6  A    between atoms: C_12  and  C_14
REMARK    7  A    between atoms: C_19  and  O_20
REMARK    8  A    between atoms: O_20  and  C_21
REMARK    9  A    between atoms: C_21  and  C_22
REMARK                            x       y       z     vdW  Elec       q    Type
REMARK                         _______ _______ _______ _____ _____    ______ ____
ROOT
ATOM      1  N   UNL     1     -31.749 -11.108  16.366  0.00  0.00    -0.305 N 
ATOM      2  C   UNL     1     -32.518 -10.748  15.209  0.00  0.00    +0.248 C 
ATOM      3  O   UNL     1     -33.086  -9.623  15.156  0.00  0.00    -0.270 OA
ATOM      4  H   UNL     1     -31.508 -12.115  16.513  0.00  0.00    +0.150 HD
ENDROOT
BRANCH   2   5
ATOM      5  C   UNL     1     -32.685 -11.698  14.085  0.00  0.00    +0.078 A 
ATOM      6  C   UNL     1     -33.769 -11.534  13.204  0.00  0.00    +0.017 A 
ATOM      7  C   UNL     1     -33.960 -12.416  12.140  0.00  0.00    +0.001 A 
ATOM      8  C   UNL     1     -33.070 -13.469  11.938  0.00  0.00    +0.004 A 
ATOM      9  C   UNL     1     -31.977 -13.637  12.791  0.00  0.00    +0.046 A 
ATOM     10  C   UNL     1     -31.764 -12.749  13.865  0.00  0.00    +0.133 A 
BRANCH  10  11
ATOM     11  O   UNL     1     -30.645 -12.865  14.711  0.00  0.00    -0.482 OA
BRANCH  11  12
ATOM     12  C   UNL     1     -30.161 -14.075  15.293  0.00  0.00    +0.324 C 
BRANCH  12  13
ATOM     13  C   UNL     1     -30.784 -14.299  16.638  0.00  0.00    +0.248 C 
ATOM     14  N   UNL     1     -30.023 -14.857  17.708  0.00  0.00    -0.327 N 
ATOM     15  O   UNL     1     -32.000 -14.018  16.817  0.00  0.00    -0.272 OA
ATOM     16  H   UNL     1     -29.019 -15.113  17.574  0.00  0.00    +0.145 HD
ATOM     17  H   UNL     1     -30.465 -15.018  18.641  0.00  0.00    +0.145 HD
ENDBRANCH  12  13
ENDBRANCH  11  12
ENDBRANCH  10  11
ENDBRANCH   2   5
BRANCH   1  18
ATOM     18  C   UNL     1     -31.318 -10.120  17.361  0.00  0.00    +0.101 C 
ATOM     19  C   UNL     1     -29.785 -10.107  17.465  0.00  0.00    +0.033 C 
BRANCH  18  25
ATOM     20  C   UNL     1     -34.299  -8.743  21.325  0.00  0.00    +0.044 C 
ATOM     21  C   UNL     1     -33.439  -9.736  20.584  0.00  0.00    -0.047 A 
ATOM     22  C   UNL     1     -33.222 -10.993  21.169  0.00  0.00    +0.003 A 
ATOM     23  C   UNL     1     -32.444 -11.949  20.527  0.00  0.00    +0.001 A 
ATOM     24  C   UNL     1     -31.844 -11.659  19.306  0.00  0.00    +0.006 A 
ATOM     25  C   UNL     1     -32.002 -10.396  18.701  0.00  0.00    -0.024 A 
ATOM     26  C   UNL     1     -32.875  -9.445  19.310  0.00  0.00    -0.043 A 
ATOM     27  C   UNL     1     -33.176  -8.130  18.621  0.00  0.00    +0.044 C 
ENDBRANCH  18  25
ENDBRANCH   1  18
TORSDOF 6
ENDMDL
MODEL 3
REMARK VINA RESULT:    -4.482      1.227      1.455
REMARK INTER + INTRA:          -8.351
REMARK INTER:                  -6.743
REMARK INTRA:                  -1.607
REMARK UNBOUND:                -2.297
REMARK  Name = 
REMARK  9 active torsions:
REMARK  status: ('A' for Active; 'I' for Inactive)
REMARK    1  A    between atoms: C_1  and  C_2
REMARK    2  A    between atoms: C_6  and  C_9
REMARK    3  A    between atoms: C_7  and  C_8
REMARK    4  A    between atoms: C_9  and  C_10
REMARK    5  A    between atoms: C_9  and  N_11
REMARK    6  A    between atoms: C_12  and  C_14
REMARK    7  A    between atoms: C_19  and  O_20
REMARK    8  A    between atoms: O_20  and  C_21
REMARK    9  A    between atoms: C_21  and  C_22
REMARK                            x       y       z     vdW  Elec       q    Type
REMARK                         _______ _______ _______ _____ _____    ______ ____
ROOT
ATOM      1  N   UNL     1     -32.503 -11.406  16.740  0.00  0.00    -0.305 N 
ATOM      2  C   UNL     1     -32.751 -10.833  15.447  0.00  0.00    +0.248 C 
ATOM      3  O   UNL     1     -32.936  -9.590  15.336  0.00  0.00    -0.270 OA
ATOM      4  H   UNL     1     -32.612 -12.439  16.857  0.00  0.00    +0.150 HD
ENDROOT
BRANCH   2   5
ATOM      5  C   UNL     1     -32.828 -11.689  14.241  0.00  0.00    +0.078 A 
ATOM      6  C   UNL     1     -33.872 -11.484  13.322  0.00  0.00    +0.017 A 
ATOM      7  C   UNL     1     -33.980 -12.279  12.180  0.00  0.00    +0.001 A 
ATOM      8  C   UNL     1     -33.043 -13.283  11.938  0.00  0.00    +0.004 A 
ATOM      9  C   UNL     1     -31.989 -13.489  12.830  0.00  0.00    +0.046 A 
ATOM     10  C   UNL     1     -31.861 -12.688  13.984  0.00  0.00    +0.133 A 
BRANCH  10  11
ATOM     11  O   UNL     1     -30.781 -12.841  14.874  0.00  0.00    -0.482 OA
BRANCH  11  12
ATOM     12  C   UNL     1     -30.291 -14.079  15.386  0.00  0.00    +0.324 C 
BRANCH  12  13
ATOM     13  C   UNL     1     -30.874 -14.360  16.738  0.00  0.00    +0.248 C 
ATOM     14  N   UNL     1     -30.065 -14.903  17.780  0.00  0.00    -0.327 N 
ATOM     15  O   UNL     1     -32.097 -14.141  16.947  0.00  0.00    -0.272 OA
ATOM     16  H   UNL     1     -29.053 -15.109  17.620  0.00  0.00    +0.145 HD
ATOM     17  H   UNL     1     -30.479 -15.104  18.718  0.00  0.00    +0.145 HD
ENDBRANCH  12  13
ENDBRANCH  11  12
ENDBRANCH  10  11
ENDBRANCH   2   5
BRANCH   1  18
ATOM     18  C   UNL     1     -32.136 -10.592  17.903  0.00  0.00    +0.101 C 
ATOM     19  C   UNL     1     -32.262  -9.098  17.564  0.00  0.00    +0.033 C 
BRANCH  18  25
ATOM     20  C   UNL     1     -28.924 -12.871  21.217  0.00  0.00    +0.044 C 
ATOM     21  C   UNL     1     -29.208 -12.078  19.966  0.00  0.00    -0.047 A 
ATOM     22  C   UNL     1     -28.120 -11.632  19.201  0.00  0.00    +0.003 A 
ATOM     23  C   UNL     1     -28.325 -10.903  18.035  0.00  0.00    +0.001 A 
ATOM     24  C   UNL     1     -29.615 -10.581  17.628  0.00  0.00    +0.006 A 
ATOM     25  C   UNL     1     -30.736 -10.975  18.387  0.00  0.00    -0.024 A 
ATOM     26  C   UNL     1     -30.535 -11.801  19.533  0.00  0.00    -0.043 A 
ATOM     27  C   UNL     1     -31.722 -12.355  20.294  0.00  0.00    +0.044 C 
ENDBRANCH  18  25
ENDBRANCH   1  18
TORSDOF 6
ENDMDL
MODEL 4
REMARK VINA RESULT:    -4.425      2.311      5.942
REMARK INTER + INTRA:          -8.275
REMARK INTER:                  -6.330
REMARK INTRA:                  -1.944
REMARK UNBOUND:                -2.297
REMARK  Name = 
REMARK  9 active torsions:
REMARK  status: ('A' for Active; 'I' for Inactive)
REMARK    1  A    between atoms: C_1  and  C_2
REMARK    2  A    between atoms: C_6  and  C_9
REMARK    3  A    between atoms: C_7  and  C_8
REMARK    4  A    between atoms: C_9  and  C_10
REMARK    5  A    between atoms: C_9  and  N_11
REMARK    6  A    between atoms: C_12  and  C_14
REMARK    7  A    between atoms: C_19  and  O_20
REMARK    8  A    between atoms: O_20  and  C_21
REMARK    9  A    between atoms: C_21  and  C_22
REMARK                            x       y       z     vdW  Elec       q    Type
REMARK                         _______ _______ _______ _____ _____    ______ ____
ROOT
ATOM      1  N   UNL     1     -31.752 -10.972  16.857  0.00  0.00    -0.305 N 
ATOM      2  C   UNL     1     -32.121  -9.604  17.090  0.00  0.00    +0.248 C 
ATOM      3  O   UNL     1     -32.695  -8.944  16.181  0.00  0.00    -0.270 OA
ATOM      4  H   UNL     1     -31.059 -11.419  17.500  0.00  0.00    +0.150 HD
ENDROOT
BRANCH   2   5
ATOM      5  C   UNL     1     -31.804  -8.942  18.377  0.00  0.00    +0.078 A 
ATOM      6  C   UNL     1     -32.549  -7.816  18.769  0.00  0.00    +0.017 A 
ATOM      7  C   UNL     1     -32.271  -7.164  19.971  0.00  0.00    +0.001 A 
ATOM      8  C   UNL     1     -31.251  -7.630  20.799  0.00  0.00    +0.004 A 
ATOM      9  C   UNL     1     -30.513  -8.758  20.434  0.00  0.00    +0.046 A 
ATOM     10  C   UNL     1     -30.787  -9.434  19.227  0.00  0.00    +0.133 A 
BRANCH  10  11
ATOM     11  O   UNL     1     -30.092 -10.602  18.859  0.00  0.00    -0.482 OA
BRANCH  11  12
ATOM     12  C   UNL     1     -29.740 -11.674  19.732  0.00  0.00    +0.324 C 
BRANCH  12  13
ATOM     13  C   UNL     1     -30.853 -12.673  19.817  0.00  0.00    +0.248 C 
ATOM     14  N   UNL     1     -30.640 -13.950  20.419  0.00  0.00    -0.327 N 
ATOM     15  O   UNL     1     -31.980 -12.395  19.325  0.00  0.00    -0.272 OA
ATOM     16  H   UNL     1     -29.708 -14.206  20.815  0.00  0.00    +0.145 HD
ATOM     17  H   UNL     1     -31.418 -14.645  20.467  0.00  0.00    +0.145 HD
ENDBRANCH  12  13
ENDBRANCH  11  12
ENDBRANCH  10  11
ENDBRANCH   2   5
BRANCH   1  18
ATOM     18  C   UNL     1     -32.287 -11.749  15.734  0.00  0.00    +0.101 C 
ATOM     19  C   UNL     1     -33.668 -12.317  16.095  0.00  0.00    +0.033 C 
BRANCH  18  25
ATOM     20  C   UNL     1     -30.167 -14.930  12.286  0.00  0.00    +0.044 C 
ATOM     21  C   UNL     1     -30.269 -14.338  13.670  0.00  0.00    -0.047 A 
ATOM     22  C   UNL     1     -29.411 -14.828  14.666  0.00  0.00    +0.003 A 
ATOM     23  C   UNL     1     -29.458 -14.315  15.957  0.00  0.00    +0.001 A 
ATOM     24  C   UNL     1     -30.379 -13.326  16.284  0.00  0.00    +0.006 A 
ATOM     25  C   UNL     1     -31.286 -12.832  15.326  0.00  0.00    -0.024 A 
ATOM     26  C   UNL     1     -31.180 -13.289  13.978  0.00  0.00    -0.043 A 
ATOM     27  C   UNL     1     -32.047 -12.683  12.893  0.00  0.00    +0.044 C 
ENDBRANCH  18  25
ENDBRANCH   1  18
TORSDOF 6
ENDMDL
MODEL 5
REMARK VINA RESULT:    -4.276      1.734      3.689
REMARK INTER + INTRA:          -8.072
REMARK INTER:                  -5.907
REMARK INTRA:                  -2.165
REMARK UNBOUND:                -2.297
REMARK  Name = 
REMARK  9 active torsions:
REMARK  status: ('A' for Active; 'I' for Inactive)
REMARK    1  A    between atoms: C_1  and  C_2
REMARK    2  A    between atoms: C_6  and  C_9
REMARK    3  A    between atoms: C_7  and  C_8
REMARK    4  A    between atoms: C_9  and  C_10
REMARK    5  A    between atoms: C_9  and  N_11
REMARK    6  A    between atoms: C_12  and  C_14
REMARK    7  A    between atoms: C_19  and  O_20
REMARK    8  A    between atoms: O_20  and  C_21
REMARK    9  A    between atoms: C_21  and  C_22
REMARK                            x       y       z     vdW  Elec       q    Type
REMARK                         _______ _______ _______ _____ _____    ______ ____
ROOT
ATOM      1  N   UNL     1     -31.553 -12.762  16.519  0.00  0.00    -0.305 N 
ATOM      2  C   UNL     1     -31.304 -12.904  15.112  0.00  0.00    +0.248 C 
ATOM      3  O   UNL     1     -30.173 -13.292  14.710  0.00  0.00    -0.270 OA
ATOM      4  H   UNL     1     -32.382 -12.203  16.826  0.00  0.00    +0.150 HD
ENDROOT
BRANCH   2   5
ATOM      5  C   UNL     1     -32.351 -12.568  14.120  0.00  0.00    +0.078 A 
ATOM      6  C   UNL     1     -32.387 -13.266  12.900  0.00  0.00    +0.017 A 
ATOM      7  C   UNL     1     -33.354 -12.968  11.939  0.00  0.00    +0.001 A 
ATOM      8  C   UNL     1     -34.300 -11.974  12.185  0.00  0.00    +0.004 A 
ATOM      9  C   UNL     1     -34.290 -11.282  13.398  0.00  0.00    +0.046 A 
ATOM     10  C   UNL     1     -33.325 -11.577  14.384  0.00  0.00    +0.133 A 
BRANCH  10  11
ATOM     11  O   UNL     1     -33.323 -10.931  15.633  0.00  0.00    -0.482 OA
BRANCH  11  12
ATOM     12  C   UNL     1     -33.074  -9.543  15.854  0.00  0.00    +0.324 C 
BRANCH  12  13
ATOM     13  C   UNL     1     -31.854  -9.353  16.702  0.00  0.00    +0.248 C 
ATOM     14  N   UNL     1     -31.898  -8.527  17.866  0.00  0.00    -0.327 N 
ATOM     15  O   UNL     1     -30.770  -9.904  16.369  0.00  0.00    -0.272 OA
ATOM     16  H   UNL     1     -32.782  -8.048  18.148  0.00  0.00    +0.145 HD
ATOM     17  H   UNL     1     -31.042  -8.393  18.449  0.00  0.00    +0.145 HD
ENDBRANCH  12  13
ENDBRANCH  11  12
ENDBRANCH  10  11
ENDBRANCH   2   5
BRANCH   1  18
ATOM     18  C   UNL     1     -30.672 -13.345  17.536  0.00  0.00    +0.101 C 
ATOM     19  C   UNL     1     -30.864 -14.868  17.592  0.00  0.00    +0.033 C 
BRANCH  18  25
ATOM     20  C   UNL     1     -29.052 -11.503  22.061  0.00  0.00    +0.044 C 
ATOM     21  C   UNL     1     -30.127 -11.774  21.039  0.00  0.00    -0.047 A 
ATOM     22  C   UNL     1     -31.445 -11.407  21.348  0.00  0.00    +0.003 A 
ATOM     23  C   UNL     1     -32.474 -11.628  20.440  0.00  0.00    +0.001 A 
ATOM     24  C   UNL     1     -32.212 -12.244  19.222  0.00  0.00    +0.006 A 
ATOM     25  C   UNL     1     -30.910 -12.665  18.885  0.00  0.00    -0.024 A 
ATOM     26  C   UNL     1     -29.836 -12.357  19.773  0.00  0.00    -0.043 A 
ATOM     27  C   UNL     1     -28.406 -12.673  19.385  0.00  0.00    +0.044 C 
ENDBRANCH  18  25
ENDBRANCH   1  18
TORSDOF 6
ENDMDL
MODEL 6
REMARK VINA RESULT:    -4.243      2.277      2.715
REMARK INTER + INTRA:          -8.028
REMARK INTER:                  -6.372
REMARK INTRA:                  -1.656
REMARK UNBOUND:                -2.297
REMARK  Name = 
REMARK  9 active torsions:
REMARK  status: ('A' for Active; 'I' for Inactive)
REMARK    1  A    between atoms: C_1  and  C_2
REMARK    2  A    between atoms: C_6  and  C_9
REMARK    3  A    between atoms: C_7  and  C_8
REMARK    4  A    between atoms: C_9  and  C_10
REMARK    5  A    between atoms: C_9  and  N_11
REMARK    6  A    between atoms: C_12  and  C_14
REMARK    7  A    between atoms: C_19  and  O_20
REMARK    8  A    between atoms: O_20  and  C_21
REMARK    9  A    between atoms: C_21  and  C_22
REMARK                            x       y       z     vdW  Elec       q    Type
REMARK                         _______ _______ _______ _____ _____    ______ ____
ROOT
ATOM      1  N   UNL     1     -33.100 -10.726  16.548  0.00  0.00    -0.305 N 
ATOM      2  C   UNL     1     -33.854 -11.654  15.753  0.00  0.00    +0.248 C 
ATOM      3  O   UNL     1     -34.954 -12.099  16.180  0.00  0.00    -0.270 OA
ATOM      4  H   UNL     1     -32.093 -10.570  16.314  0.00  0.00    +0.150 HD
ENDROOT
BRANCH   2   5
ATOM      5  C   UNL     1     -33.339 -12.124  14.446  0.00  0.00    +0.078 A 
ATOM      6  C   UNL     1     -34.173 -12.052  13.316  0.00  0.00    +0.017 A 
ATOM      7  C   UNL     1     -33.722 -12.495  12.071  0.00  0.00    +0.001 A 
ATOM      8  C   UNL     1     -32.434 -13.008  11.938  0.00  0.00    +0.004 A 
ATOM      9  C   UNL     1     -31.585 -13.070  13.045  0.00  0.00    +0.046 A 
ATOM     10  C   UNL     1     -32.021 -12.619  14.308  0.00  0.00    +0.133 A 
BRANCH  10  11
ATOM     11  O   UNL     1     -31.171 -12.624  15.430  0.00  0.00    -0.482 OA
BRANCH  11  12
ATOM     12  C   UNL     1     -30.310 -13.693  15.818  0.00  0.00    +0.324 C 
BRANCH  12  13
ATOM     13  C   UNL     1     -30.826 -14.365  17.054  0.00  0.00    +0.248 C 
ATOM     14  N   UNL     1     -29.949 -14.669  18.138  0.00  0.00    -0.327 N 
ATOM     15  O   UNL     1     -32.042 -14.691  17.125  0.00  0.00    -0.272 OA
ATOM     16  H   UNL     1     -28.934 -14.423  18.090  0.00  0.00    +0.145 HD
ATOM     17  H   UNL     1     -30.313 -15.144  18.993  0.00  0.00    +0.145 HD
ENDBRANCH  12  13
ENDBRANCH  11  12
ENDBRANCH  10  11
ENDBRANCH   2   5
BRANCH   1  18
ATOM     18  C   UNL     1     -33.683 -10.017  17.692  0.00  0.00    +0.101 C 
ATOM     19  C   UNL     1     -34.391  -8.739  17.217  0.00  0.00    +0.033 C 
BRANCH  18  25
ATOM     20  C   UNL     1     -30.686 -11.446  21.626  0.00  0.00    +0.044 C 
ATOM     21  C   UNL     1     -31.166 -10.438  20.611  0.00  0.00    -0.047 A 
ATOM     22  C   UNL     1     -30.612  -9.149  20.642  0.00  0.00    +0.003 A 
ATOM     23  C   UNL     1     -31.013  -8.184  19.727  0.00  0.00    +0.001 A 
ATOM     24  C   UNL     1     -31.993  -8.475  18.785  0.00  0.00    +0.006 A 
ATOM     25  C   UNL     1     -32.605  -9.744  18.742  0.00  0.00    -0.024 A 
ATOM     26  C   UNL     1     -32.132 -10.766  19.618  0.00  0.00    -0.043 A 
ATOM     27  C   UNL     1     -32.670 -12.179  19.510  0.00  0.00    +0.044 C 
ENDBRANCH  18  25
ENDBRANCH   1  18
TORSDOF 6
ENDMDL
MODEL 7
REMARK VINA RESULT:    -4.015      2.297      7.165
REMARK INTER + INTRA:          -7.720
REMARK INTER:                  -6.729
REMARK INTRA:                  -0.991
REMARK UNBOUND:                -2.297
REMARK  Name = 
REMARK  9 active torsions:
REMARK  status: ('A' for Active; 'I' for Inactive)
REMARK    1  A    between atoms: C_1  and  C_2
REMARK    2  A    between atoms: C_6  and  C_9
REMARK    3  A    between atoms: C_7  and  C_8
REMARK    4  A    between atoms: C_9  and  C_10
REMARK    5  A    between atoms: C_9  and  N_11
REMARK    6  A    between atoms: C_12  and  C_14
REMARK    7  A    between atoms: C_19  and  O_20
REMARK    8  A    between atoms: O_20  and  C_21
REMARK    9  A    between atoms: C_21  and  C_22
REMARK                            x       y       z     vdW  Elec       q    Type
REMARK                         _______ _______ _______ _____ _____    ______ ____
ROOT
ATOM      1  N   UNL     1     -29.929 -13.237  18.027  0.00  0.00    -0.305 N 
ATOM      2  C   UNL     1     -28.794 -12.515  18.530  0.00  0.00    +0.248 C 
ATOM      3  O   UNL     1     -28.412 -11.462  17.950  0.00  0.00    -0.270 OA
ATOM      4  H   UNL     1     -30.073 -14.223  18.344  0.00  0.00    +0.150 HD
ENDROOT
BRANCH   2   5
ATOM      5  C   UNL     1     -28.040 -13.010  19.705  0.00  0.00    +0.078 A 
ATOM      6  C   UNL     1     -26.689 -13.366  19.551  0.00  0.00    +0.017 A 
ATOM      7  C   UNL     1     -25.952 -13.845  20.634  0.00  0.00    +0.001 A 
ATOM      8  C   UNL     1     -26.552 -13.969  21.886  0.00  0.00    +0.004 A 
ATOM      9  C   UNL     1     -27.888 -13.604  22.062  0.00  0.00    +0.046 A 
ATOM     10  C   UNL     1     -28.645 -13.110  20.980  0.00  0.00    +0.133 A 
BRANCH  10  11
ATOM     11  O   UNL     1     -29.978 -12.688  21.140  0.00  0.00    -0.482 OA
BRANCH  11  12
ATOM     12  C   UNL     1     -30.401 -11.483  21.775  0.00  0.00    +0.324 C 
BRANCH  12  13
ATOM     13  C   UNL     1     -30.706 -10.427  20.757  0.00  0.00    +0.248 C 
ATOM     14  N   UNL     1     -29.914  -9.241  20.678  0.00  0.00    -0.327 N 
ATOM     15  O   UNL     1     -31.688 -10.573  19.981  0.00  0.00    -0.272 OA
ATOM     16  H   UNL     1     -29.107  -9.094  21.324  0.00  0.00    +0.145 HD
ATOM     17  H   UNL     1     -30.136  -8.506  19.971  0.00  0.00    +0.145 HD
ENDBRANCH  12  13
ENDBRANCH  11  12
ENDBRANCH  10  11
ENDBRANCH   2   5
BRANCH   1  18
ATOM     18  C   UNL     1     -30.869 -12.652  17.066  0.00  0.00    +0.101 C 
ATOM     19  C   UNL     1     -32.305 -12.754  17.601  0.00  0.00    +0.033 C 
BRANCH  18  25
ATOM     20  C   UNL     1     -31.870 -13.044  12.032  0.00  0.00    +0.044 C 
ATOM     21  C   UNL     1     -31.168 -13.487  13.291  0.00  0.00    -0.047 A 
ATOM     22  C   UNL     1     -30.317 -14.601  13.220  0.00  0.00    +0.003 A 
ATOM     23  C   UNL     1     -29.640 -15.048  14.348  0.00  0.00    +0.001 A 
ATOM     24  C   UNL     1     -29.821 -14.413  15.571  0.00  0.00    +0.006 A 
ATOM     25  C   UNL     1     -30.696 -13.315  15.698  0.00  0.00    -0.024 A 
ATOM     26  C   UNL     1     -31.321 -12.795  14.525  0.00  0.00    -0.043 A 
ATOM     27  C   UNL     1     -32.160 -11.536  14.598  0.00  0.00    +0.044 C 
ENDBRANCH  18  25
ENDBRANCH   1  18
TORSDOF 6
ENDMDL
MODEL 8
REMARK VINA RESULT:    -4.008      1.722      3.594
REMARK INTER + INTRA:          -7.711
REMARK INTER:                  -6.090
REMARK INTRA:                  -1.620
REMARK UNBOUND:                -2.297
REMARK  Name = 
REMARK  9 active torsions:
REMARK  status: ('A' for Active; 'I' for Inactive)
REMARK    1  A    between atoms: C_1  and  C_2
REMARK    2  A    between atoms: C_6  and  C_9
REMARK    3  A    between atoms: C_7  and  C_8
REMARK    4  A    between atoms: C_9  and  C_10
REMARK    5  A    between atoms: C_9  and  N_11
REMARK    6  A    between atoms: C_12  and  C_14
REMARK    7  A    between atoms: C_19  and  O_20
REMARK    8  A    between atoms: O_20  and  C_21
REMARK    9  A    between atoms: C_21  and  C_22
REMARK                            x       y       z     vdW  Elec       q    Type
REMARK                         _______ _______ _______ _____ _____    ______ ____
ROOT
ATOM      1  N   UNL     1     -31.587 -10.875  16.499  0.00  0.00    -0.305 N 
ATOM      2  C   UNL     1     -31.970 -12.171  16.014  0.00  0.00    +0.248 C 
ATOM      3  O   UNL     1     -31.906 -13.172  16.778  0.00  0.00    -0.270 OA
ATOM      4  H   UNL     1     -31.396 -10.117  15.805  0.00  0.00    +0.150 HD
ENDROOT
BRANCH   2   5
ATOM      5  C   UNL     1     -32.409 -12.354  14.611  0.00  0.00    +0.078 A 
ATOM      6  C   UNL     1     -31.724 -13.271  13.794  0.00  0.00    +0.017 A 
ATOM      7  C   UNL     1     -32.105 -13.462  12.466  0.00  0.00    +0.001 A 
ATOM      8  C   UNL     1     -33.178 -12.746  11.938  0.00  0.00    +0.004 A 
ATOM      9  C   UNL     1     -33.882 -11.845  12.739  0.00  0.00    +0.046 A 
ATOM     10  C   UNL     1     -33.515 -11.647  14.086  0.00  0.00    +0.133 A 
BRANCH  10  11
ATOM     11  O   UNL     1     -34.238 -10.782  14.930  0.00  0.00    -0.482 OA
BRANCH  11  12
ATOM     12  C   UNL     1     -34.473  -9.395  14.698  0.00  0.00    +0.324 C 
BRANCH  12  13
ATOM     13  C   UNL     1     -34.571  -8.651  15.995  0.00  0.00    +0.248 C 
ATOM     14  N   UNL     1     -34.282  -7.254  16.057  0.00  0.00    -0.327 N 
ATOM     15  O   UNL     1     -34.883  -9.270  17.047  0.00  0.00    -0.272 OA
ATOM     16  H   UNL     1     -34.003  -6.727  15.199  0.00  0.00    +0.145 HD
ATOM     17  H   UNL     1     -34.344  -6.744  16.965  0.00  0.00    +0.145 HD
ENDBRANCH  12  13
ENDBRANCH  11  12
ENDBRANCH  10  11
ENDBRANCH   2   5
BRANCH   1  18
ATOM     18  C   UNL     1     -31.426 -10.588  17.929  0.00  0.00    +0.101 C 
ATOM     19  C   UNL     1     -31.554  -9.078  18.183  0.00  0.00    +0.033 C 
BRANCH  18  25
ATOM     20  C   UNL     1     -28.647 -13.492  21.144  0.00  0.00    +0.044 C 
ATOM     21  C   UNL     1     -28.782 -12.566  19.961  0.00  0.00    -0.047 A 
ATOM     22  C   UNL     1     -27.615 -12.178  19.284  0.00  0.00    +0.003 A 
ATOM     23  C   UNL     1     -27.682 -11.332  18.184  0.00  0.00    +0.001 A 
ATOM     24  C   UNL     1     -28.908 -10.834  17.757  0.00  0.00    +0.006 A 
ATOM     25  C   UNL     1     -30.101 -11.165  18.431  0.00  0.00    -0.024 A 
ATOM     26  C   UNL     1     -30.048 -12.106  19.502  0.00  0.00    -0.043 A 
ATOM     27  C   UNL     1     -31.324 -12.589  20.162  0.00  0.00    +0.044 C 
ENDBRANCH  18  25
ENDBRANCH   1  18
TORSDOF 6
ENDMDL
MODEL 9
REMARK VINA RESULT:    -4.003      2.047      5.942
REMARK INTER + INTRA:          -7.704
REMARK INTER:                  -5.968
REMARK INTRA:                  -1.737
REMARK UNBOUND:                -2.297
REMARK  Name = 
REMARK  9 active torsions:
REMARK  status: ('A' for Active; 'I' for Inactive)
REMARK    1  A    between atoms: C_1  and  C_2
REMARK    2  A    between atoms: C_6  and  C_9
REMARK    3  A    between atoms: C_7  and  C_8
REMARK    4  A    between atoms: C_9  and  C_10
REMARK    5  A    between atoms: C_9  and  N_11
REMARK    6  A    between atoms: C_12  and  C_14
REMARK    7  A    between atoms: C_19  and  O_20
REMARK    8  A    between atoms: O_20  and  C_21
REMARK    9  A    between atoms: C_21  and  C_22
REMARK                            x       y       z     vdW  Elec       q    Type
REMARK                         _______ _______ _______ _____ _____    ______ ____
ROOT
ATOM      1  N   UNL     1     -31.392 -12.240  17.531  0.00  0.00    -0.305 N 
ATOM      2  C   UNL     1     -32.306 -11.378  18.227  0.00  0.00    +0.248 C 
ATOM      3  O   UNL     1     -33.547 -11.595  18.163  0.00  0.00    -0.270 OA
ATOM      4  H   UNL     1     -30.413 -11.908  17.374  0.00  0.00    +0.150 HD
ENDROOT
BRANCH   2   5
ATOM      5  C   UNL     1     -31.811 -10.210  18.992  0.00  0.00    +0.078 A 
ATOM      6  C   UNL     1     -32.534  -9.005  18.945  0.00  0.00    +0.017 A 
ATOM      7  C   UNL     1     -32.091  -7.883  19.648  0.00  0.00    +0.001 A 
ATOM      8  C   UNL     1     -30.926  -7.952  20.410  0.00  0.00    +0.004 A 
ATOM      9  C   UNL     1     -30.205  -9.145  20.483  0.00  0.00    +0.046 A 
ATOM     10  C   UNL     1     -30.644 -10.291  19.787  0.00  0.00    +0.133 A 
BRANCH  10  11
ATOM     11  O   UNL     1     -29.964 -11.520  19.882  0.00  0.00    -0.482 OA
BRANCH  11  12
ATOM     12  C   UNL     1     -28.554 -11.704  19.767  0.00  0.00    +0.324 C 
BRANCH  12  13
ATOM     13  C   UNL     1     -28.245 -13.011  19.102  0.00  0.00    +0.248 C 
ATOM     14  N   UNL     1     -28.301 -14.233  19.837  0.00  0.00    -0.327 N 
ATOM     15  O   UNL     1     -27.904 -13.028  17.889  0.00  0.00    -0.272 OA
ATOM     16  H   UNL     1     -28.564 -14.237  20.848  0.00  0.00    +0.145 HD
ATOM     17  H   UNL     1     -28.077 -15.139  19.370  0.00  0.00    +0.145 HD
ENDBRANCH  12  13
ENDBRANCH  11  12
ENDBRANCH  10  11
ENDBRANCH   2   5
BRANCH   1  18
ATOM     18  C   UNL     1     -31.793 -13.550  17.008  0.00  0.00    +0.101 C 
ATOM     19  C   UNL     1     -31.294 -14.667  17.939  0.00  0.00    +0.033 C 
BRANCH  18  25
ATOM     20  C   UNL     1     -32.185 -12.754  11.938  0.00  0.00    +0.044 C 
ATOM     21  C   UNL     1     -31.484 -13.314  13.150  0.00  0.00    -0.047 A 
ATOM     22  C   UNL     1     -30.313 -14.061  12.954  0.00  0.00    +0.003 A 
ATOM     23  C   UNL     1     -29.623 -14.595  14.036  0.00  0.00    +0.001 A 
ATOM     24  C   UNL     1     -30.104 -14.421  15.328  0.00  0.00    +0.006 A 
ATOM     25  C   UNL     1     -31.298 -13.711  15.569  0.00  0.00    -0.024 A 
ATOM     26  C   UNL     1     -31.959 -13.082  14.472  0.00  0.00    -0.043 A 
ATOM     27  C   UNL     1     -33.168 -12.200  14.709  0.00  0.00    +0.044 C 
ENDBRANCH  18  25
ENDBRANCH   1  18
TORSDOF 6
ENDMDL
