MODEL 1
REMARK VINA RESULT:    -4.769      0.000      0.000
REMARK INTER + INTRA:          -8.940
REMARK INTER:                  -6.442
REMARK INTRA:                  -2.498
REMARK UNBOUND:                -2.498
REMARK  Name = 
REMARK  6 active torsions:
REMARK  status: ('A' for Active; 'I' for Inactive)
REMARK    1  A    between atoms: S_2  and  N_4
REMARK    2  A    between atoms: S_2  and  C_18
REMARK    3  A    between atoms: N_4  and  C_5
REMARK    4  A    between atoms: C_5  and  C_6
REMARK    5  A    between atoms: C_6  and  C_7
REMARK    6  A    between atoms: C_6  and  N_13
REMARK                            x       y       z     vdW  Elec       q    Type
REMARK                         _______ _______ _______ _____ _____    ______ ____
ROOT
ATOM      1  C   UNL     1     -28.940 -11.671  20.051  0.00  0.00    +0.129 C 
ENDROOT
BRANCH   1   2
ATOM      2  N   UNL     1     -30.199 -10.918  20.004  0.00  0.00    -0.188 NA
ATOM      3  H   UNL     1     -30.973 -11.578  19.763  0.00  0.00    +0.148 HD
BRANCH   2   5
ATOM      4  O   UNL     1     -30.433  -8.390  19.257  0.00  0.00    -0.153 OA
ATOM      5  S   UNL     1     -30.140  -9.759  18.710  0.00  0.00    +0.059 S 
ATOM      6  O   UNL     1     -28.764  -9.745  18.104  0.00  0.00    -0.153 OA
BRANCH   5   7
ATOM      7  C   UNL     1     -31.342 -10.157  17.483  0.00  0.00    +0.108 A 
ATOM      8  C   UNL     1     -30.999 -10.161  16.123  0.00  0.00    +0.029 A 
ATOM      9  C   UNL     1     -31.952 -10.507  15.160  0.00  0.00    +0.005 A 
ATOM     10  C   UNL     1     -33.249 -10.854  15.551  0.00  0.00    +0.038 A 
ATOM     11  C   UNL     1     -33.593 -10.858  16.906  0.00  0.00    +0.125 A 
ATOM     12  F   UNL     1     -34.849 -11.201  17.286  0.00  0.00    -0.205 F 
ATOM     13  C   UNL     1     -32.641 -10.512  17.871  0.00  0.00    +0.066 A 
ENDBRANCH   5   7
ENDBRANCH   2   5
ENDBRANCH   1   2
BRANCH   1  14
ATOM     14  C   UNL     1     -29.201 -13.194  19.939  0.00  0.00    +0.102 C 
BRANCH  14  15
ATOM     15  C   UNL     1     -29.764 -13.513  18.561  0.00  0.00    -0.029 A 
ATOM     16  C   UNL     1     -28.958 -13.377  17.418  0.00  0.00    +0.005 A 
ATOM     17  C   UNL     1     -29.470 -13.685  16.153  0.00  0.00    +0.000 A 
ATOM     18  C   UNL     1     -30.786 -14.131  16.019  0.00  0.00    +0.000 A 
ATOM     19  C   UNL     1     -31.594 -14.273  17.150  0.00  0.00    +0.000 A 
ATOM     20  C   UNL     1     -31.088 -13.967  18.415  0.00  0.00    +0.005 A 
ENDBRANCH  14  15
BRANCH  14  21
ATOM     21  N   UNL     1     -27.954 -13.972  20.175  0.00  0.00    -0.294 NA
ATOM     22  C   UNL     1     -27.781 -14.328  21.590  0.00  0.00    +0.085 C 
ATOM     23  C   UNL     1     -26.294 -14.542  21.812  0.00  0.00    +0.017 C 
ATOM     24  C   UNL     1     -25.611 -13.767  20.701  0.00  0.00    +0.017 C 
ATOM     25  C   UNL     1     -26.736 -13.228  19.828  0.00  0.00    +0.085 C 
ENDBRANCH  14  21
ENDBRANCH   1  14
TORSDOF 6
ENDMDL
MODEL 2
REMARK VINA RESULT:    -4.744      2.566      6.195
REMARK INTER + INTRA:          -8.906
REMARK INTER:                  -6.087
REMARK INTRA:                  -2.819
REMARK UNBOUND:                -2.498
REMARK  Name = 
REMARK  6 active torsions:
REMARK  status: ('A' for Active; 'I' for Inactive)
REMARK    1  A    between atoms: S_2  and  N_4
REMARK    2  A    between atoms: S_2  and  C_18
REMARK    3  A    between atoms: N_4  and  C_5
REMARK    4  A    between atoms: C_5  and  C_6
REMARK    5  A    between atoms: C_6  and  C_7
REMARK    6  A    between atoms: C_6  and  N_13
REMARK                            x       y       z     vdW  Elec       q    Type
REMARK                         _______ _______ _______ _____ _____    ______ ____
ROOT
ATOM      1  C   UNL     1     -32.243  -9.856  16.586  0.00  0.00    +0.129 C 
ENDROOT
BRANCH   1   2
ATOM      2  N   UNL     1     -30.917  -9.417  17.038  0.00  0.00    -0.188 NA
ATOM      3  H   UNL     1     -30.194 -10.026  16.592  0.00  0.00    +0.148 HD
BRANCH   2   5
ATOM      4  O   UNL     1     -30.262  -8.414  19.398  0.00  0.00    -0.153 OA
ATOM      5  S   UNL     1     -30.767  -9.673  18.750  0.00  0.00    +0.059 S 
ATOM      6  O   UNL     1     -32.114 -10.000  19.333  0.00  0.00    -0.153 OA
BRANCH   5   7
ATOM      7  C   UNL     1     -29.630 -10.981  19.071  0.00  0.00    +0.108 A 
ATOM      8  C   UNL     1     -28.394 -11.032  18.410  0.00  0.00    +0.029 A 
ATOM      9  C   UNL     1     -27.487 -12.058  18.695  0.00  0.00    +0.005 A 
ATOM     10  C   UNL     1     -27.809 -13.034  19.642  0.00  0.00    +0.038 A 
ATOM     11  C   UNL     1     -29.037 -12.983  20.309  0.00  0.00    +0.125 A 
ATOM     12  F   UNL     1     -29.346 -13.927  21.233  0.00  0.00    -0.205 F 
ATOM     13  C   UNL     1     -29.945 -11.958  20.026  0.00  0.00    +0.066 A 
ENDBRANCH   5   7
ENDBRANCH   2   5
ENDBRANCH   1   2
BRANCH   1  14
ATOM     14  C   UNL     1     -32.122 -10.908  15.455  0.00  0.00    +0.102 C 
BRANCH  14  15
ATOM     15  C   UNL     1     -31.575 -12.208  16.028  0.00  0.00    -0.029 A 
ATOM     16  C   UNL     1     -32.313 -12.926  16.985  0.00  0.00    +0.005 A 
ATOM     17  C   UNL     1     -31.818 -14.129  17.501  0.00  0.00    +0.000 A 
ATOM     18  C   UNL     1     -30.587 -14.625  17.065  0.00  0.00    +0.000 A 
ATOM     19  C   UNL     1     -29.849 -13.920  16.112  0.00  0.00    +0.000 A 
ATOM     20  C   UNL     1     -30.338 -12.719  15.594  0.00  0.00    +0.005 A 
ENDBRANCH  14  15
BRANCH  14  21
ATOM     21  N   UNL     1     -33.438 -11.150  14.804  0.00  0.00    -0.294 NA
ATOM     22  C   UNL     1     -33.302 -11.832  13.510  0.00  0.00    +0.085 C 
ATOM     23  C   UNL     1     -34.537 -11.488  12.697  0.00  0.00    +0.017 C 
ATOM     24  C   UNL     1     -35.061 -10.197  13.298  0.00  0.00    +0.017 C 
ATOM     25  C   UNL     1     -34.165  -9.910  14.495  0.00  0.00    +0.085 C 
ENDBRANCH  14  21
ENDBRANCH   1  14
TORSDOF 6
ENDMDL
MODEL 3
REMARK VINA RESULT:    -4.641      2.922      5.220
REMARK INTER + INTRA:          -8.768
REMARK INTER:                  -5.994
REMARK INTRA:                  -2.774
REMARK UNBOUND:                -2.498
REMARK  Name = 
REMARK  6 active torsions:
REMARK  status: ('A' for Active; 'I' for Inactive)
REMARK    1  A    between atoms: S_2  and  N_4
REMARK    2  A    between atoms: S_2  and  C_18
REMARK    3  A    between atoms: N_4  and  C_5
REMARK    4  A    between atoms: C_5  and  C_6
REMARK    5  A    between atoms: C_6  and  C_7
REMARK    6  A    between atoms: C_6  and  N_13
REMARK                            x       y       z     vdW  Elec       q    Type
REMARK                         _______ _______ _______ _____ _____    ______ ____
ROOT
ATOM      1  C   UNL     1     -29.175 -13.306  17.313  0.00  0.00    +0.129 C 
ENDROOT
BRANCH   1   2
ATOM      2  N   UNL     1     -29.443 -14.052  18.548  0.00  0.00    -0.188 NA
ATOM      3  H   UNL     1     -30.471 -14.234  18.610  0.00  0.00    +0.148 HD
BRANCH   2   5
ATOM      4  O   UNL     1     -29.060 -13.922  21.163  0.00  0.00    -0.153 OA
ATOM      5  S   UNL     1     -29.047 -13.069  19.925  0.00  0.00    +0.059 S 
ATOM      6  O   UNL     1     -27.668 -12.494  19.758  0.00  0.00    -0.153 OA
BRANCH   5   7
ATOM      7  C   UNL     1     -30.229 -11.774  20.108  0.00  0.00    +0.108 A 
ATOM      8  C   UNL     1     -31.542 -12.057  20.513  0.00  0.00    +0.029 A 
ATOM      9  C   UNL     1     -32.463 -11.018  20.683  0.00  0.00    +0.005 A 
ATOM     10  C   UNL     1     -32.076  -9.695  20.453  0.00  0.00    +0.038 A 
ATOM     11  C   UNL     1     -30.767  -9.408  20.056  0.00  0.00    +0.125 A 
ATOM     12  F   UNL     1     -30.390  -8.123  19.839  0.00  0.00    -0.205 F 
ATOM     13  C   UNL     1     -29.844 -10.445  19.885  0.00  0.00    +0.066 A 
ENDBRANCH   5   7
ENDBRANCH   2   5
ENDBRANCH   1   2
BRANCH   1  14
ATOM     14  C   UNL     1     -30.331 -13.481  16.297  0.00  0.00    +0.102 C 
BRANCH  14  15
ATOM     15  C   UNL     1     -31.300 -12.314  16.426  0.00  0.00    -0.029 A 
ATOM     16  C   UNL     1     -32.629 -12.538  16.828  0.00  0.00    +0.005 A 
ATOM     17  C   UNL     1     -33.516 -11.465  16.961  0.00  0.00    +0.000 A 
ATOM     18  C   UNL     1     -33.086 -10.163  16.697  0.00  0.00    +0.000 A 
ATOM     19  C   UNL     1     -31.767  -9.930  16.301  0.00  0.00    +0.000 A 
ATOM     20  C   UNL     1     -30.877 -10.998  16.166  0.00  0.00    +0.005 A 
ENDBRANCH  14  15
BRANCH  14  21
ATOM     21  N   UNL     1     -29.813 -13.565  14.904  0.00  0.00    -0.294 NA
ATOM     22  C   UNL     1     -30.865 -13.918  13.941  0.00  0.00    +0.085 C 
ATOM     23  C   UNL     1     -30.175 -14.555  12.748  0.00  0.00    +0.017 C 
ATOM     24  C   UNL     1     -28.848 -15.062  13.281  0.00  0.00    +0.017 C 
ATOM     25  C   UNL     1     -28.789 -14.603  14.731  0.00  0.00    +0.085 C 
ENDBRANCH  14  21
ENDBRANCH   1  14
TORSDOF 6
ENDMDL
MODEL 4
REMARK VINA RESULT:    -4.585      1.147      3.935
REMARK INTER + INTRA:          -8.691
REMARK INTER:                  -6.650
REMARK INTRA:                  -2.041
REMARK UNBOUND:                -2.498
REMARK  Name = 
REMARK  6 active torsions:
REMARK  status: ('A' for Active; 'I' for Inactive)
REMARK    1  A    between atoms: S_2  and  N_4
REMARK    2  A    between atoms: S_2  and  C_18
REMARK    3  A    between atoms: N_4  and  C_5
REMARK    4  A    between atoms: C_5  and  C_6
REMARK    5  A    between atoms: C_6  and  C_7
REMARK    6  A    between atoms: C_6  and  N_13
REMARK                            x       y       z     vdW  Elec       q    Type
REMARK                         _______ _______ _______ _____ _____    ______ ____
ROOT
ATOM      1  C   UNL     1     -29.709 -11.772  20.329  0.00  0.00    +0.129 C 
ENDROOT
BRANCH   1   2
ATOM      2  N   UNL     1     -29.297 -10.369  20.459  0.00  0.00    -0.188 NA
ATOM      3  H   UNL     1     -29.048 -10.187  21.458  0.00  0.00    +0.148 HD
BRANCH   2   5
ATOM      4  O   UNL     1     -31.733  -9.568  21.110  0.00  0.00    -0.153 OA
ATOM      5  S   UNL     1     -30.642  -9.328  20.104  0.00  0.00    +0.059 S 
ATOM      6  O   UNL     1     -30.210  -7.891  20.204  0.00  0.00    -0.153 OA
BRANCH   5   7
ATOM      7  C   UNL     1     -31.264  -9.667  18.490  0.00  0.00    +0.108 A 
ATOM      8  C   UNL     1     -30.399  -9.716  17.387  0.00  0.00    +0.029 A 
ATOM      9  C   UNL     1     -30.899 -10.015  16.116  0.00  0.00    +0.005 A 
ATOM     10  C   UNL     1     -32.262 -10.269  15.941  0.00  0.00    +0.038 A 
ATOM     11  C   UNL     1     -33.127 -10.228  17.039  0.00  0.00    +0.125 A 
ATOM     12  F   UNL     1     -34.449 -10.481  16.870  0.00  0.00    -0.205 F 
ATOM     13  C   UNL     1     -32.629  -9.929  18.311  0.00  0.00    +0.066 A 
ENDBRANCH   5   7
ENDBRANCH   2   5
ENDBRANCH   1   2
BRANCH   1  14
ATOM     14  C   UNL     1     -28.764 -12.542  19.372  0.00  0.00    +0.102 C 
BRANCH  14  15
ATOM     15  C   UNL     1     -27.679 -13.237  20.181  0.00  0.00    -0.029 A 
ATOM     16  C   UNL     1     -28.016 -13.993  21.317  0.00  0.00    +0.005 A 
ATOM     17  C   UNL     1     -27.021 -14.646  22.053  0.00  0.00    +0.000 A 
ATOM     18  C   UNL     1     -25.684 -14.551  21.660  0.00  0.00    +0.000 A 
ATOM     19  C   UNL     1     -25.338 -13.805  20.531  0.00  0.00    +0.000 A 
ATOM     20  C   UNL     1     -26.329 -13.151  19.793  0.00  0.00    +0.005 A 
ENDBRANCH  14  15
BRANCH  14  21
ATOM     21  N   UNL     1     -29.516 -13.538  18.561  0.00  0.00    -0.294 NA
ATOM     22  C   UNL     1     -29.270 -13.381  17.121  0.00  0.00    +0.085 C 
ATOM     23  C   UNL     1     -30.471 -13.970  16.402  0.00  0.00    +0.017 C 
ATOM     24  C   UNL     1     -31.599 -13.931  17.415  0.00  0.00    +0.017 C 
ATOM     25  C   UNL     1     -30.973 -13.417  18.704  0.00  0.00    +0.085 C 
ENDBRANCH  14  21
ENDBRANCH   1  14
TORSDOF 6
ENDMDL
MODEL 5
REMARK VINA RESULT:    -4.250      2.939      5.342
REMARK INTER + INTRA:          -8.239
REMARK INTER:                  -5.477
REMARK INTRA:                  -2.762
REMARK UNBOUND:                -2.498
REMARK  Name = 
REMARK  6 active torsions:
REMARK  status: ('A' for Active; 'I' for Inactive)
REMARK    1  A    between atoms: S_2  and  N_4
REMARK    2  A    between atoms: S_2  and  C_18
REMARK    3  A    between atoms: N_4  and  C_5
REMARK    4  A    between atoms: C_5  and  C_6
REMARK    5  A    between atoms: C_6  and  C_7
REMARK    6  A    between atoms: C_6  and  N_13
REMARK                            x       y       z     vdW  Elec       q    Type
REMARK                         _______ _______ _______ _____ _____    ______ ____
ROOT
ATOM      1  C   UNL     1     -29.808 -10.718  19.925  0.00  0.00    +0.129 C 
ENDROOT
BRANCH   1   2
ATOM      2  N   UNL     1     -28.576 -11.158  19.260  0.00  0.00    -0.188 NA
ATOM      3  H   UNL     1     -28.606 -10.847  18.263  0.00  0.00    +0.148 HD
BRANCH   2   5
ATOM      4  O   UNL     1     -27.100 -13.341  19.014  0.00  0.00    -0.153 OA
ATOM      5  S   UNL     1     -28.521 -12.895  19.218  0.00  0.00    +0.059 S 
ATOM      6  O   UNL     1     -29.010 -13.449  20.528  0.00  0.00    -0.153 OA
BRANCH   5   7
ATOM      7  C   UNL     1     -29.510 -13.502  17.892  0.00  0.00    +0.108 A 
ATOM      8  C   UNL     1     -30.819 -13.949  18.123  0.00  0.00    +0.029 A 
ATOM      9  C   UNL     1     -31.606 -14.401  17.059  0.00  0.00    +0.005 A 
ATOM     10  C   UNL     1     -31.090 -14.404  15.760  0.00  0.00    +0.038 A 
ATOM     11  C   UNL     1     -29.788 -13.952  15.523  0.00  0.00    +0.125 A 
ATOM     12  F   UNL     1     -29.291 -13.949  14.261  0.00  0.00    -0.205 F 
ATOM     13  C   UNL     1     -29.000 -13.500  16.586  0.00  0.00    +0.066 A 
ENDBRANCH   5   7
ENDBRANCH   2   5
ENDBRANCH   1   2
BRANCH   1  14
ATOM     14  C   UNL     1     -30.427  -9.500  19.195  0.00  0.00    +0.102 C 
BRANCH  14  15
ATOM     15  C   UNL     1     -31.180  -9.976  17.961  0.00  0.00    -0.029 A 
ATOM     16  C   UNL     1     -32.475 -10.509  18.084  0.00  0.00    +0.005 A 
ATOM     17  C   UNL     1     -33.174 -10.934  16.949  0.00  0.00    +0.000 A 
ATOM     18  C   UNL     1     -32.589 -10.827  15.685  0.00  0.00    +0.000 A 
ATOM     19  C   UNL     1     -31.305 -10.295  15.552  0.00  0.00    +0.000 A 
ATOM     20  C   UNL     1     -30.602  -9.870  16.683  0.00  0.00    +0.005 A 
ENDBRANCH  14  15
BRANCH  14  21
ATOM     21  N   UNL     1     -31.341  -8.743  20.093  0.00  0.00    -0.294 NA
ATOM     22  C   UNL     1     -31.528  -7.353  19.654  0.00  0.00    +0.085 C 
ATOM     23  C   UNL     1     -31.927  -6.553  20.880  0.00  0.00    +0.017 C 
ATOM     24  C   UNL     1     -31.416  -7.354  22.062  0.00  0.00    +0.017 C 
ATOM     25  C   UNL     1     -30.837  -8.632  21.469  0.00  0.00    +0.085 C 
ENDBRANCH  14  21
ENDBRANCH   1  14
TORSDOF 6
ENDMDL
MODEL 6
REMARK VINA RESULT:    -4.215      2.825      5.140
REMARK INTER + INTRA:          -8.191
REMARK INTER:                  -7.251
REMARK INTRA:                  -0.940
REMARK UNBOUND:                -2.498
REMARK  Name = 
REMARK  6 active torsions:
REMARK  status: ('A' for Active; 'I' for Inactive)
REMARK    1  A    between atoms: S_2  and  N_4
REMARK    2  A    between atoms: S_2  and  C_18
REMARK    3  A    between atoms: N_4  and  C_5
REMARK    4  A    between atoms: C_5  and  C_6
REMARK    5  A    between atoms: C_6  and  C_7
REMARK    6  A    between atoms: C_6  and  N_13
REMARK                            x       y       z     vdW  Elec       q    Type
REMARK                         _______ _______ _______ _____ _____    ______ ____
ROOT
ATOM      1  C   UNL     1     -29.345 -13.154  18.416  0.00  0.00    +0.129 C 
ENDROOT
BRANCH   1   2
ATOM      2  N   UNL     1     -30.171 -14.341  18.166  0.00  0.00    -0.188 NA
ATOM      3  H   UNL     1     -29.582 -15.061  17.689  0.00  0.00    +0.148 HD
BRANCH   2   5
ATOM      4  O   UNL     1     -32.590 -14.895  17.248  0.00  0.00    -0.153 OA
ATOM      5  S   UNL     1     -31.442 -13.946  17.048  0.00  0.00    +0.059 S 
ATOM      6  O   UNL     1     -31.930 -12.548  17.309  0.00  0.00    -0.153 OA
BRANCH   5   7
ATOM      7  C   UNL     1     -30.859 -14.089  15.391  0.00  0.00    +0.108 A 
ATOM      8  C   UNL     1     -29.769 -14.917  15.085  0.00  0.00    +0.029 A 
ATOM      9  C   UNL     1     -29.334 -15.045  13.762  0.00  0.00    +0.005 A 
ATOM     10  C   UNL     1     -29.988 -14.352  12.740  0.00  0.00    +0.038 A 
ATOM     11  C   UNL     1     -31.080 -13.531  13.039  0.00  0.00    +0.125 A 
ATOM     12  F   UNL     1     -31.718 -12.863  12.045  0.00  0.00    -0.205 F 
ATOM     13  C   UNL     1     -31.516 -13.400  14.361  0.00  0.00    +0.066 A 
ENDBRANCH   5   7
ENDBRANCH   2   5
ENDBRANCH   1   2
BRANCH   1  14
ATOM     14  C   UNL     1     -29.232 -12.866  19.934  0.00  0.00    +0.102 C 
BRANCH  14  15
ATOM     15  C   UNL     1     -27.921 -13.429  20.462  0.00  0.00    -0.029 A 
ATOM     16  C   UNL     1     -27.913 -14.274  21.586  0.00  0.00    +0.005 A 
ATOM     17  C   UNL     1     -26.710 -14.804  22.062  0.00  0.00    +0.000 A 
ATOM     18  C   UNL     1     -25.507 -14.500  21.420  0.00  0.00    +0.000 A 
ATOM     19  C   UNL     1     -25.504 -13.665  20.301  0.00  0.00    +0.000 A 
ATOM     20  C   UNL     1     -26.704 -13.132  19.821  0.00  0.00    +0.005 A 
ENDBRANCH  14  15
BRANCH  14  21
ATOM     21  N   UNL     1     -29.311 -11.406  20.211  0.00  0.00    -0.294 NA
ATOM     22  C   UNL     1     -30.368 -11.079  21.177  0.00  0.00    +0.085 C 
ATOM     23  C   UNL     1     -30.761  -9.633  20.929  0.00  0.00    +0.017 C 
ATOM     24  C   UNL     1     -30.345  -9.349  19.498  0.00  0.00    +0.017 C 
ATOM     25  C   UNL     1     -29.637 -10.609  19.020  0.00  0.00    +0.085 C 
ENDBRANCH  14  21
ENDBRANCH   1  14
TORSDOF 6
ENDMDL
MODEL 7
REMARK VINA RESULT:    -4.162      2.670      5.596
REMARK INTER + INTRA:          -8.120
REMARK INTER:                  -6.225
REMARK INTRA:                  -1.895
REMARK UNBOUND:                -2.498
REMARK  Name = 
REMARK  6 active torsions:
REMARK  status: ('A' for Active; 'I' for Inactive)
REMARK    1  A    between atoms: S_2  and  N_4
REMARK    2  A    between atoms: S_2  and  C_18
REMARK    3  A    between atoms: N_4  and  C_5
REMARK    4  A    between atoms: C_5  and  C_6
REMARK    5  A    between atoms: C_6  and  C_7
REMARK    6  A    between atoms: C_6  and  N_13
REMARK                            x       y       z     vdW  Elec       q    Type
REMARK                         _______ _______ _______ _____ _____    ______ ____
ROOT
ATOM      1  C   UNL     1     -31.770 -10.555  16.347  0.00  0.00    +0.129 C 
ENDROOT
BRANCH   1   2
ATOM      2  N   UNL     1     -31.768 -10.291  17.791  0.00  0.00    -0.188 NA
ATOM      3  H   UNL     1     -32.315  -9.419  17.970  0.00  0.00    +0.148 HD
BRANCH   2   5
ATOM      4  O   UNL     1     -29.273  -9.712  17.124  0.00  0.00    -0.153 OA
ATOM      5  S   UNL     1     -30.148  -9.956  18.322  0.00  0.00    +0.059 S 
ATOM      6  O   UNL     1     -30.141  -8.718  19.177  0.00  0.00    -0.153 OA
BRANCH   5   7
ATOM      7  C   UNL     1     -29.510 -11.326  19.230  0.00  0.00    +0.108 A 
ATOM      8  C   UNL     1     -30.348 -12.089  20.055  0.00  0.00    +0.029 A 
ATOM      9  C   UNL     1     -29.838 -13.191  20.748  0.00  0.00    +0.005 A 
ATOM     10  C   UNL     1     -28.490 -13.538  20.616  0.00  0.00    +0.038 A 
ATOM     11  C   UNL     1     -27.652 -12.785  19.789  0.00  0.00    +0.125 A 
ATOM     12  F   UNL     1     -26.346 -13.126  19.656  0.00  0.00    -0.205 F 
ATOM     13  C   UNL     1     -28.160 -11.682  19.095  0.00  0.00    +0.066 A 
ENDBRANCH   5   7
ENDBRANCH   2   5
ENDBRANCH   1   2
BRANCH   1  14
ATOM     14  C   UNL     1     -32.665 -11.774  16.008  0.00  0.00    +0.102 C 
BRANCH  14  15
ATOM     15  C   UNL     1     -33.412 -11.509  14.708  0.00  0.00    -0.029 A 
ATOM     16  C   UNL     1     -33.261 -12.380  13.614  0.00  0.00    +0.005 A 
ATOM     17  C   UNL     1     -33.959 -12.146  12.425  0.00  0.00    +0.000 A 
ATOM     18  C   UNL     1     -34.813 -11.045  12.318  0.00  0.00    +0.000 A 
ATOM     19  C   UNL     1     -34.972 -10.177  13.401  0.00  0.00    +0.000 A 
ATOM     20  C   UNL     1     -34.277 -10.406  14.591  0.00  0.00    +0.005 A 
ENDBRANCH  14  15
BRANCH  14  21
ATOM     21  N   UNL     1     -31.855 -13.017  15.889  0.00  0.00    -0.294 NA
ATOM     22  C   UNL     1     -31.910 -13.836  17.108  0.00  0.00    +0.085 C 
ATOM     23  C   UNL     1     -30.652 -14.685  17.126  0.00  0.00    +0.017 C 
ATOM     24  C   UNL     1     -29.660 -13.945  16.249  0.00  0.00    +0.017 C 
ATOM     25  C   UNL     1     -30.424 -12.757  15.681  0.00  0.00    +0.085 C 
ENDBRANCH  14  21
ENDBRANCH   1  14
TORSDOF 6
ENDMDL
MODEL 8
REMARK VINA RESULT:    -4.104      2.557      3.569
REMARK INTER + INTRA:          -8.041
REMARK INTER:                  -5.276
REMARK INTRA:                  -2.765
REMARK UNBOUND:                -2.498
REMARK  Name = 
REMARK  6 active torsions:
REMARK  status: ('A' for Active; 'I' for Inactive)
REMARK    1  A    between atoms: S_2  and  N_4
REMARK    2  A    between atoms: S_2  and  C_18
REMARK    3  A    between atoms: N_4  and  C_5
REMARK    4  A    between atoms: C_5  and  C_6
REMARK    5  A    between atoms: C_6  and  C_7
REMARK    6  A    between atoms: C_6  and  N_13
REMARK                            x       y       z     vdW  Elec       q    Type
REMARK                         _______ _______ _______ _____ _____    ______ ____
ROOT
ATOM      1  C   UNL     1     -29.655 -13.836  18.856  0.00  0.00    +0.129 C 
ENDROOT
BRANCH   1   2
ATOM      2  N   UNL     1     -29.449 -14.134  17.434  0.00  0.00    -0.188 NA
ATOM      3  H   UNL     1     -28.901 -13.353  17.006  0.00  0.00    +0.148 HD
BRANCH   2   5
ATOM      4  O   UNL     1     -30.787 -14.669  15.214  0.00  0.00    -0.153 OA
ATOM      5  S   UNL     1     -30.980 -14.149  16.611  0.00  0.00    +0.059 S 
ATOM      6  O   UNL     1     -31.933 -15.062  17.331  0.00  0.00    -0.153 OA
BRANCH   5   7
ATOM      7  C   UNL     1     -31.643 -12.518  16.530  0.00  0.00    +0.108 A 
ATOM      8  C   UNL     1     -30.944 -11.494  15.875  0.00  0.00    +0.029 A 
ATOM      9  C   UNL     1     -31.493 -10.210  15.791  0.00  0.00    +0.005 A 
ATOM     10  C   UNL     1     -32.743  -9.945  16.358  0.00  0.00    +0.038 A 
ATOM     11  C   UNL     1     -33.447 -10.965  17.006  0.00  0.00    +0.125 A 
ATOM     12  F   UNL     1     -34.663 -10.710  17.549  0.00  0.00    -0.205 F 
ATOM     13  C   UNL     1     -32.900 -12.249  17.091  0.00  0.00    +0.066 A 
ENDBRANCH   5   7
ENDBRANCH   2   5
ENDBRANCH   1   2
BRANCH   1  14
ATOM     14  C   UNL     1     -28.934 -12.525  19.258  0.00  0.00    +0.102 C 
BRANCH  14  15
ATOM     15  C   UNL     1     -29.965 -11.487  19.677  0.00  0.00    -0.029 A 
ATOM     16  C   UNL     1     -29.784 -10.133  19.341  0.00  0.00    +0.005 A 
ATOM     17  C   UNL     1     -30.739  -9.180  19.713  0.00  0.00    +0.000 A 
ATOM     18  C   UNL     1     -31.880  -9.570  20.419  0.00  0.00    +0.000 A 
ATOM     19  C   UNL     1     -32.070 -10.912  20.754  0.00  0.00    +0.000 A 
ATOM     20  C   UNL     1     -31.119 -11.868  20.385  0.00  0.00    +0.005 A 
ENDBRANCH  14  15
BRANCH  14  21
ATOM     21  N   UNL     1     -27.966 -12.762  20.364  0.00  0.00    -0.294 NA
ATOM     22  C   UNL     1     -26.648 -13.181  19.870  0.00  0.00    +0.085 C 
ATOM     23  C   UNL     1     -25.980 -13.952  20.994  0.00  0.00    +0.017 C 
ATOM     24  C   UNL     1     -27.117 -14.438  21.873  0.00  0.00    +0.017 C 
ATOM     25  C   UNL     1     -28.382 -13.838  21.274  0.00  0.00    +0.085 C 
ENDBRANCH  14  21
ENDBRANCH   1  14
TORSDOF 6
ENDMDL
MODEL 9
REMARK VINA RESULT:    -3.920      3.312      5.278
REMARK INTER + INTRA:          -7.794
REMARK INTER:                  -4.998
REMARK INTRA:                  -2.796
REMARK UNBOUND:                -2.498
REMARK  Name = 
REMARK  6 active torsions:
REMARK  status: ('A' for Active; 'I' for Inactive)
REMARK    1  A    between atoms: S_2  and  N_4
REMARK    2  A    between atoms: S_2  and  C_18
REMARK    3  A    between atoms: N_4  and  C_5
REMARK    4  A    between atoms: C_5  and  C_6
REMARK    5  A    between atoms: C_6  and  C_7
REMARK    6  A    between atoms: C_6  and  N_13
REMARK                            x       y       z     vdW  Elec       q    Type
REMARK                         _______ _______ _______ _____ _____    ______ ____
ROOT
ATOM      1  C   UNL     1     -32.297  -9.399  18.021  0.00  0.00    +0.129 C 
ENDROOT
BRANCH   1   2
ATOM      2  N   UNL     1     -33.544 -10.175  18.028  0.00  0.00    -0.188 NA
ATOM      3  H   UNL     1     -33.460 -10.933  18.743  0.00  0.00    +0.148 HD
BRANCH   2   5
ATOM      4  O   UNL     1     -35.062 -11.696  16.485  0.00  0.00    -0.153 OA
ATOM      5  S   UNL     1     -33.741 -10.979  16.500  0.00  0.00    +0.059 S 
ATOM      6  O   UNL     1     -33.738  -9.965  15.389  0.00  0.00    -0.153 OA
BRANCH   5   7
ATOM      7  C   UNL     1     -32.448 -12.152  16.259  0.00  0.00    +0.108 A 
ATOM      8  C   UNL     1     -31.595 -12.056  15.149  0.00  0.00    +0.029 A 
ATOM      9  C   UNL     1     -30.554 -12.975  14.983  0.00  0.00    +0.005 A 
ATOM     10  C   UNL     1     -30.357 -13.988  15.926  0.00  0.00    +0.038 A 
ATOM     11  C   UNL     1     -31.200 -14.083  17.037  0.00  0.00    +0.125 A 
ATOM     12  F   UNL     1     -31.005 -15.062  17.955  0.00  0.00    -0.205 F 
ATOM     13  C   UNL     1     -32.243 -13.166  17.205  0.00  0.00    +0.066 A 
ENDBRANCH   5   7
ENDBRANCH   2   5
ENDBRANCH   1   2
BRANCH   1  14
ATOM     14  C   UNL     1     -31.546  -9.547  19.368  0.00  0.00    +0.102 C 
BRANCH  14  15
ATOM     15  C   UNL     1     -30.349 -10.469  19.183  0.00  0.00    -0.029 A 
ATOM     16  C   UNL     1     -30.152 -11.556  20.052  0.00  0.00    +0.005 A 
ATOM     17  C   UNL     1     -29.061 -12.414  19.874  0.00  0.00    +0.000 A 
ATOM     18  C   UNL     1     -28.162 -12.195  18.827  0.00  0.00    +0.000 A 
ATOM     19  C   UNL     1     -28.352 -11.120  17.956  0.00  0.00    +0.000 A 
ATOM     20  C   UNL     1     -29.439 -10.261  18.130  0.00  0.00    +0.005 A 
ENDBRANCH  14  15
BRANCH  14  21
ATOM     21  N   UNL     1     -31.098  -8.223  19.881  0.00  0.00    -0.294 NA
ATOM     22  C   UNL     1     -30.909  -8.226  21.338  0.00  0.00    +0.085 C 
ATOM     23  C   UNL     1     -31.061  -6.790  21.805  0.00  0.00    +0.017 C 
ATOM     24  C   UNL     1     -31.877  -6.105  20.725  0.00  0.00    +0.017 C 
ATOM     25  C   UNL     1     -32.070  -7.150  19.634  0.00  0.00    +0.085 C 
ENDBRANCH  14  21
ENDBRANCH   1  14
TORSDOF 6
ENDMDL
