MODEL 1
REMARK VINA RESULT:    -3.402      0.000      0.000
REMARK INTER + INTRA:          -6.634
REMARK INTER:                  -4.993
REMARK INTRA:                  -1.641
REMARK UNBOUND:                -1.641
REMARK  Name = 
REMARK  11 active torsions:
REMARK  status: ('A' for Active; 'I' for Inactive)
REMARK    1  A    between atoms: C_1  and  C_2
REMARK    2  A    between atoms: C_2  and  C_3
REMARK    3  A    between atoms: C_7  and  C_8
REMARK    4  A    between atoms: C_8  and  C_9
REMARK    5  A    between atoms: C_10  and  N_11
REMARK    6  A    between atoms: C_12  and  C_14
REMARK    7  A    between atoms: C_14  and  O_15
REMARK    8  A    between atoms: O_15  and  C_16
REMARK    9  A    between atoms: C_19  and  N_22
REMARK   10  A    between atoms: C_23  and  C_25
REMARK   11  A    between atoms: C_29  and  C_30
REMARK                            x       y       z     vdW  Elec       q    Type
REMARK                         _______ _______ _______ _____ _____    ______ ____
ROOT
ATOM      1  C   UNL     1     -29.031 -12.525  17.678  0.00  0.00    +0.121 A 
ATOM      2  C   UNL     1     -29.503 -12.854  18.954  0.00  0.00    +0.047 A 
ATOM      3  C   UNL     1     -29.899 -11.853  19.846  0.00  0.00    +0.027 A 
ATOM      4  C   UNL     1     -29.819 -10.500  19.475  0.00  0.00    +0.034 A 
ATOM      5  C   UNL     1     -29.367 -10.171  18.189  0.00  0.00    +0.027 A 
ATOM      6  C   UNL     1     -28.968 -11.171  17.298  0.00  0.00    +0.047 A 
ENDROOT
BRANCH   4   7
ATOM      7  N   UNL     1     -30.246  -9.452  20.364  0.00  0.00    -0.281 N 
ATOM      8  C   UNL     1     -31.514  -8.784  20.256  0.00  0.00    +0.248 C 
ATOM      9  O   UNL     1     -32.471  -9.347  19.654  0.00  0.00    -0.270 OA
ATOM     10  H   UNL     1     -29.651  -9.245  21.197  0.00  0.00    +0.155 HD
BRANCH   8  11
ATOM     11  C   UNL     1     -31.728  -7.457  20.885  0.00  0.00    +0.037 A 
ATOM     12  C   UNL     1     -30.639  -6.686  21.328  0.00  0.00    +0.013 A 
ATOM     13  C   UNL     1     -30.850  -5.436  21.917  0.00  0.00    +0.001 A 
ATOM     14  C   UNL     1     -32.146  -4.938  22.062  0.00  0.00    +0.003 A 
ATOM     15  C   UNL     1     -33.243  -5.680  21.602  0.00  0.00    -0.050 A 
ATOM     16  C   UNL     1     -34.639  -5.162  21.791  0.00  0.00    +0.044 C 
ATOM     17  C   UNL     1     -33.031  -6.942  21.027  0.00  0.00    +0.016 A 
ENDBRANCH   8  11
ENDBRANCH   4   7
BRANCH   1  18
ATOM     18  O   UNL     1     -28.645 -13.566  16.820  0.00  0.00    -0.483 OA
BRANCH  18  19
ATOM     19  C   UNL     1     -29.437 -14.719  16.546  0.00  0.00    +0.324 C 
BRANCH  19  21
ATOM     20  N   UNL     1     -30.470 -13.328  14.692  0.00  0.00    -0.282 N 
ATOM     21  C   UNL     1     -30.609 -14.338  15.699  0.00  0.00    +0.255 C 
ATOM     22  O   UNL     1     -31.704 -14.945  15.843  0.00  0.00    -0.272 OA
ATOM     23  H   UNL     1     -29.561 -12.824  14.586  0.00  0.00    +0.155 HD
BRANCH  20  29
ATOM     24  C   UNL     1     -32.413 -11.836  14.376  0.00  0.00    -0.026 A 
ATOM     25  C   UNL     1     -33.526 -11.444  13.615  0.00  0.00    +0.005 A 
ATOM     26  C   UNL     1     -33.812 -12.072  12.403  0.00  0.00    +0.001 A 
ATOM     27  C   UNL     1     -32.998 -13.104  11.938  0.00  0.00    +0.005 A 
ATOM     28  C   UNL     1     -31.877 -13.517  12.676  0.00  0.00    -0.026 A 
ATOM     29  C   UNL     1     -31.587 -12.886  13.908  0.00  0.00    +0.040 A 
BRANCH  24  31
ATOM     30  C   UNL     1     -33.227 -11.617  16.730  0.00  0.00    +0.009 C 
ATOM     31  C   UNL     1     -32.173 -11.180  15.717  0.00  0.00    +0.033 C 
ENDBRANCH  24  31
BRANCH  28  32
ATOM     32  C   UNL     1     -31.041 -14.664  12.161  0.00  0.00    +0.033 C 
ATOM     33  C   UNL     1     -29.579 -14.249  12.018  0.00  0.00    +0.009 C 
ENDBRANCH  28  32
ENDBRANCH  20  29
ENDBRANCH  19  21
ENDBRANCH  18  19
ENDBRANCH   1  18
TORSDOF 8
ENDMDL
MODEL 2
REMARK VINA RESULT:    -3.119      0.135      2.248
REMARK INTER + INTRA:          -6.218
REMARK INTER:                  -5.072
REMARK INTRA:                  -1.147
REMARK UNBOUND:                -1.641
REMARK  Name = 
REMARK  11 active torsions:
REMARK  status: ('A' for Active; 'I' for Inactive)
REMARK    1  A    between atoms: C_1  and  C_2
REMARK    2  A    between atoms: C_2  and  C_3
REMARK    3  A    between atoms: C_7  and  C_8
REMARK    4  A    between atoms: C_8  and  C_9
REMARK    5  A    between atoms: C_10  and  N_11
REMARK    6  A    between atoms: C_12  and  C_14
REMARK    7  A    between atoms: C_14  and  O_15
REMARK    8  A    between atoms: O_15  and  C_16
REMARK    9  A    between atoms: C_19  and  N_22
REMARK   10  A    between atoms: C_23  and  C_25
REMARK   11  A    between atoms: C_29  and  C_30
REMARK                            x       y       z     vdW  Elec       q    Type
REMARK                         _______ _______ _______ _____ _____    ______ ____
ROOT
ATOM      1  C   UNL     1     -29.044 -12.468  17.616  0.00  0.00    +0.121 A 
ATOM      2  C   UNL     1     -29.483 -12.817  18.898  0.00  0.00    +0.047 A 
ATOM      3  C   UNL     1     -29.905 -11.834  19.798  0.00  0.00    +0.027 A 
ATOM      4  C   UNL     1     -29.884 -10.478  19.428  0.00  0.00    +0.034 A 
ATOM      5  C   UNL     1     -29.465 -10.129  18.136  0.00  0.00    +0.027 A 
ATOM      6  C   UNL     1     -29.040 -11.112  17.237  0.00  0.00    +0.047 A 
ENDROOT
BRANCH   4   7
ATOM      7  N   UNL     1     -30.339  -9.449  20.325  0.00  0.00    -0.281 N 
ATOM      8  C   UNL     1     -31.579  -8.740  20.161  0.00  0.00    +0.248 C 
ATOM      9  O   UNL     1     -32.509  -9.254  19.480  0.00  0.00    -0.270 OA
ATOM     10  H   UNL     1     -29.792  -9.287  21.201  0.00  0.00    +0.155 HD
BRANCH   8  11
ATOM     11  C   UNL     1     -31.796  -7.429  20.822  0.00  0.00    +0.037 A 
ATOM     12  C   UNL     1     -30.715  -6.699  21.348  0.00  0.00    +0.013 A 
ATOM     13  C   UNL     1     -30.929  -5.465  21.967  0.00  0.00    +0.001 A 
ATOM     14  C   UNL     1     -32.220  -4.940  22.060  0.00  0.00    +0.003 A 
ATOM     15  C   UNL     1     -33.307  -5.641  21.518  0.00  0.00    -0.050 A 
ATOM     16  C   UNL     1     -34.699  -5.096  21.651  0.00  0.00    +0.044 C 
ATOM     17  C   UNL     1     -33.093  -6.888  20.912  0.00  0.00    +0.016 A 
ENDBRANCH   8  11
ENDBRANCH   4   7
BRANCH   1  18
ATOM     18  O   UNL     1     -28.630 -13.492  16.751  0.00  0.00    -0.483 OA
BRANCH  18  19
ATOM     19  C   UNL     1     -29.379 -14.676  16.488  0.00  0.00    +0.324 C 
BRANCH  19  21
ATOM     20  N   UNL     1     -30.518 -13.265  14.711  0.00  0.00    -0.282 N 
ATOM     21  C   UNL     1     -30.576 -14.343  15.655  0.00  0.00    +0.255 C 
ATOM     22  O   UNL     1     -31.617 -15.046  15.752  0.00  0.00    -0.272 OA
ATOM     23  H   UNL     1     -29.654 -12.682  14.644  0.00  0.00    +0.155 HD
BRANCH  20  29
ATOM     24  C   UNL     1     -31.925 -13.475  12.692  0.00  0.00    -0.026 A 
ATOM     25  C   UNL     1     -33.028 -13.048  11.938  0.00  0.00    +0.005 A 
ATOM     26  C   UNL     1     -33.870 -12.045  12.419  0.00  0.00    +0.001 A 
ATOM     27  C   UNL     1     -33.618 -11.450  13.654  0.00  0.00    +0.005 A 
ATOM     28  C   UNL     1     -32.522 -11.858  14.432  0.00  0.00    -0.026 A 
ATOM     29  C   UNL     1     -31.664 -12.871  13.946  0.00  0.00    +0.040 A 
BRANCH  24  31
ATOM     30  C   UNL     1     -29.537 -14.124  12.331  0.00  0.00    +0.009 C 
ATOM     31  C   UNL     1     -30.996 -14.515  12.110  0.00  0.00    +0.033 C 
ENDBRANCH  24  31
BRANCH  28  32
ATOM     32  C   UNL     1     -32.257 -11.164  15.747  0.00  0.00    +0.033 C 
ATOM     33  C   UNL     1     -33.029 -11.834  16.881  0.00  0.00    +0.009 C 
ENDBRANCH  28  32
ENDBRANCH  20  29
ENDBRANCH  19  21
ENDBRANCH  18  19
ENDBRANCH   1  18
TORSDOF 8
ENDMDL
MODEL 3
REMARK VINA RESULT:    -2.744      2.272      4.404
REMARK INTER + INTRA:          -5.668
REMARK INTER:                  -4.637
REMARK INTRA:                  -1.030
REMARK UNBOUND:                -1.641
REMARK  Name = 
REMARK  11 active torsions:
REMARK  status: ('A' for Active; 'I' for Inactive)
REMARK    1  A    between atoms: C_1  and  C_2
REMARK    2  A    between atoms: C_2  and  C_3
REMARK    3  A    between atoms: C_7  and  C_8
REMARK    4  A    between atoms: C_8  and  C_9
REMARK    5  A    between atoms: C_10  and  N_11
REMARK    6  A    between atoms: C_12  and  C_14
REMARK    7  A    between atoms: C_14  and  O_15
REMARK    8  A    between atoms: O_15  and  C_16
REMARK    9  A    between atoms: C_19  and  N_22
REMARK   10  A    between atoms: C_23  and  C_25
REMARK   11  A    between atoms: C_29  and  C_30
REMARK                            x       y       z     vdW  Elec       q    Type
REMARK                         _______ _______ _______ _____ _____    ______ ____
ROOT
ATOM      1  C   UNL     1     -34.380 -10.784  14.228  0.00  0.00    +0.121 A 
ATOM      2  C   UNL     1     -33.593  -9.647  14.441  0.00  0.00    +0.047 A 
ATOM      3  C   UNL     1     -33.486  -9.083  15.715  0.00  0.00    +0.027 A 
ATOM      4  C   UNL     1     -34.179  -9.648  16.801  0.00  0.00    +0.034 A 
ATOM      5  C   UNL     1     -34.951 -10.800  16.592  0.00  0.00    +0.027 A 
ATOM      6  C   UNL     1     -35.060 -11.361  15.317  0.00  0.00    +0.047 A 
ENDROOT
BRANCH   4   7
ATOM      7  N   UNL     1     -34.064  -9.104  18.128  0.00  0.00    -0.281 N 
ATOM      8  C   UNL     1     -34.322  -7.727  18.449  0.00  0.00    +0.248 C 
ATOM      9  O   UNL     1     -35.048  -7.030  17.686  0.00  0.00    -0.270 OA
ATOM     10  H   UNL     1     -33.894  -9.769  18.915  0.00  0.00    +0.155 HD
BRANCH   8  11
ATOM     11  C   UNL     1     -33.782  -7.124  19.693  0.00  0.00    +0.037 A 
ATOM     12  C   UNL     1     -34.643  -6.718  20.729  0.00  0.00    +0.013 A 
ATOM     13  C   UNL     1     -34.126  -6.154  21.898  0.00  0.00    +0.001 A 
ATOM     14  C   UNL     1     -32.747  -5.998  22.052  0.00  0.00    +0.003 A 
ATOM     15  C   UNL     1     -31.871  -6.421  21.042  0.00  0.00    -0.050 A 
ATOM     16  C   UNL     1     -30.392  -6.219  21.191  0.00  0.00    +0.044 C 
ATOM     17  C   UNL     1     -32.393  -6.971  19.861  0.00  0.00    +0.016 A 
ENDBRANCH   8  11
ENDBRANCH   4   7
BRANCH   1  18
ATOM     18  O   UNL     1     -34.456 -11.310  12.929  0.00  0.00    -0.483 OA
BRANCH  18  19
ATOM     19  C   UNL     1     -33.818 -12.514  12.510  0.00  0.00    +0.324 C 
BRANCH  19  21
ATOM     20  N   UNL     1     -32.314 -13.777  14.119  0.00  0.00    -0.282 N 
ATOM     21  C   UNL     1     -32.515 -12.673  13.226  0.00  0.00    +0.255 C 
ATOM     22  O   UNL     1     -31.579 -11.859  13.003  0.00  0.00    -0.272 OA
ATOM     23  H   UNL     1     -33.099 -14.441  14.304  0.00  0.00    +0.155 HD
BRANCH  20  29
ATOM     24  C   UNL     1     -31.091 -13.617  16.258  0.00  0.00    -0.026 A 
ATOM     25  C   UNL     1     -29.889 -13.728  16.975  0.00  0.00    +0.005 A 
ATOM     26  C   UNL     1     -28.721 -14.147  16.339  0.00  0.00    +0.001 A 
ATOM     27  C   UNL     1     -28.733 -14.454  14.979  0.00  0.00    +0.005 A 
ATOM     28  C   UNL     1     -29.921 -14.354  14.236  0.00  0.00    -0.026 A 
ATOM     29  C   UNL     1     -31.106 -13.924  14.876  0.00  0.00    +0.040 A 
BRANCH  24  31
ATOM     30  C   UNL     1     -31.961 -12.533  18.337  0.00  0.00    +0.009 C 
ATOM     31  C   UNL     1     -32.321 -13.095  16.964  0.00  0.00    +0.033 C 
ENDBRANCH  24  31
BRANCH  28  32
ATOM     32  C   UNL     1     -29.888 -14.655  12.756  0.00  0.00    +0.033 C 
ATOM     33  C   UNL     1     -28.500 -14.394  12.180  0.00  0.00    +0.009 C 
ENDBRANCH  28  32
ENDBRANCH  20  29
ENDBRANCH  19  21
ENDBRANCH  18  19
ENDBRANCH   1  18
TORSDOF 8
ENDMDL
MODEL 4
REMARK VINA RESULT:    -2.473      2.216      4.991
REMARK INTER + INTRA:          -5.271
REMARK INTER:                  -3.922
REMARK INTRA:                  -1.349
REMARK UNBOUND:                -1.641
REMARK  Name = 
REMARK  11 active torsions:
REMARK  status: ('A' for Active; 'I' for Inactive)
REMARK    1  A    between atoms: C_1  and  C_2
REMARK    2  A    between atoms: C_2  and  C_3
REMARK    3  A    between atoms: C_7  and  C_8
REMARK    4  A    between atoms: C_8  and  C_9
REMARK    5  A    between atoms: C_10  and  N_11
REMARK    6  A    between atoms: C_12  and  C_14
REMARK    7  A    between atoms: C_14  and  O_15
REMARK    8  A    between atoms: O_15  and  C_16
REMARK    9  A    between atoms: C_19  and  N_22
REMARK   10  A    between atoms: C_23  and  C_25
REMARK   11  A    between atoms: C_29  and  C_30
REMARK                            x       y       z     vdW  Elec       q    Type
REMARK                         _______ _______ _______ _____ _____    ______ ____
ROOT
ATOM      1  C   UNL     1     -34.285 -10.948  14.161  0.00  0.00    +0.121 A 
ATOM      2  C   UNL     1     -33.480  -9.833  14.415  0.00  0.00    +0.047 A 
ATOM      3  C   UNL     1     -33.450  -9.251  15.686  0.00  0.00    +0.027 A 
ATOM      4  C   UNL     1     -34.239  -9.775  16.725  0.00  0.00    +0.034 A 
ATOM      5  C   UNL     1     -35.031 -10.906  16.475  0.00  0.00    +0.027 A 
ATOM      6  C   UNL     1     -35.062 -11.485  15.204  0.00  0.00    +0.047 A 
ENDROOT
BRANCH   4   7
ATOM      7  N   UNL     1     -34.207  -9.213  18.048  0.00  0.00    -0.281 N 
ATOM      8  C   UNL     1     -34.301  -7.804  18.317  0.00  0.00    +0.248 C 
ATOM      9  O   UNL     1     -34.825  -7.036  17.462  0.00  0.00    -0.270 OA
ATOM     10  H   UNL     1     -34.227  -9.871  18.860  0.00  0.00    +0.155 HD
BRANCH   8  11
ATOM     11  C   UNL     1     -33.833  -7.245  19.610  0.00  0.00    +0.037 A 
ATOM     12  C   UNL     1     -34.743  -6.960  20.643  0.00  0.00    +0.013 A 
ATOM     13  C   UNL     1     -34.293  -6.436  21.858  0.00  0.00    +0.001 A 
ATOM     14  C   UNL     1     -32.931  -6.200  22.060  0.00  0.00    +0.003 A 
ATOM     15  C   UNL     1     -32.006  -6.504  21.051  0.00  0.00    -0.050 A 
ATOM     16  C   UNL     1     -30.546  -6.216  21.253  0.00  0.00    +0.044 C 
ATOM     17  C   UNL     1     -32.461  -7.013  19.825  0.00  0.00    +0.016 A 
ENDBRANCH   8  11
ENDBRANCH   4   7
BRANCH   1  18
ATOM     18  O   UNL     1     -34.280 -11.494  12.868  0.00  0.00    -0.483 OA
BRANCH  18  19
ATOM     19  C   UNL     1     -33.691 -12.746  12.524  0.00  0.00    +0.324 C 
BRANCH  19  21
ATOM     20  N   UNL     1     -32.131 -13.770  14.245  0.00  0.00    -0.282 N 
ATOM     21  C   UNL     1     -32.341 -12.860  13.158  0.00  0.00    +0.255 C 
ATOM     22  O   UNL     1     -31.379 -12.188  12.698  0.00  0.00    -0.272 OA
ATOM     23  H   UNL     1     -32.936 -14.316  14.625  0.00  0.00    +0.155 HD
BRANCH  20  29
ATOM     24  C   UNL     1     -29.761 -14.463  14.287  0.00  0.00    -0.026 A 
ATOM     25  C   UNL     1     -28.546 -14.576  14.981  0.00  0.00    +0.005 A 
ATOM     26  C   UNL     1     -28.426 -14.089  16.283  0.00  0.00    +0.001 A 
ATOM     27  C   UNL     1     -29.517 -13.489  16.911  0.00  0.00    +0.005 A 
ATOM     28  C   UNL     1     -30.744 -13.360  16.241  0.00  0.00    -0.026 A 
ATOM     29  C   UNL     1     -30.871 -13.858  14.924  0.00  0.00    +0.040 A 
BRANCH  24  31
ATOM     30  C   UNL     1     -28.530 -15.018  12.182  0.00  0.00    +0.009 C 
ATOM     31  C   UNL     1     -29.874 -15.062  12.904  0.00  0.00    +0.033 C 
ENDBRANCH  24  31
BRANCH  28  32
ATOM     32  C   UNL     1     -31.915 -12.742  16.967  0.00  0.00    +0.033 C 
ATOM     33  C   UNL     1     -31.515 -12.311  18.375  0.00  0.00    +0.009 C 
ENDBRANCH  28  32
ENDBRANCH  20  29
ENDBRANCH  19  21
ENDBRANCH  18  19
ENDBRANCH   1  18
TORSDOF 8
ENDMDL
MODEL 5
REMARK VINA RESULT:    -1.864      2.972      5.991
REMARK INTER + INTRA:          -4.377
REMARK INTER:                  -4.663
REMARK INTRA:                   0.286
REMARK UNBOUND:                -1.641
REMARK  Name = 
REMARK  11 active torsions:
REMARK  status: ('A' for Active; 'I' for Inactive)
REMARK    1  A    between atoms: C_1  and  C_2
REMARK    2  A    between atoms: C_2  and  C_3
REMARK    3  A    between atoms: C_7  and  C_8
REMARK    4  A    between atoms: C_8  and  C_9
REMARK    5  A    between atoms: C_10  and  N_11
REMARK    6  A    between atoms: C_12  and  C_14
REMARK    7  A    between atoms: C_14  and  O_15
REMARK    8  A    between atoms: O_15  and  C_16
REMARK    9  A    between atoms: C_19  and  N_22
REMARK   10  A    between atoms: C_23  and  C_25
REMARK   11  A    between atoms: C_29  and  C_30
REMARK                            x       y       z     vdW  Elec       q    Type
REMARK                         _______ _______ _______ _____ _____    ______ ____
ROOT
ATOM      1  C   UNL     1     -33.999  -9.734  17.876  0.00  0.00    +0.121 A 
ATOM      2  C   UNL     1     -32.802  -9.011  17.943  0.00  0.00    +0.047 A 
ATOM      3  C   UNL     1     -31.722  -9.489  18.690  0.00  0.00    +0.027 A 
ATOM      4  C   UNL     1     -31.829 -10.700  19.396  0.00  0.00    +0.034 A 
ATOM      5  C   UNL     1     -33.020 -11.436  19.312  0.00  0.00    +0.027 A 
ATOM      6  C   UNL     1     -34.101 -10.956  18.567  0.00  0.00    +0.047 A 
ENDROOT
BRANCH   4   7
ATOM      7  N   UNL     1     -30.724 -11.228  20.150  0.00  0.00    -0.281 N 
ATOM      8  C   UNL     1     -29.446 -11.547  19.574  0.00  0.00    +0.248 C 
ATOM      9  O   UNL     1     -29.095 -11.006  18.489  0.00  0.00    -0.270 OA
ATOM     10  H   UNL     1     -30.820 -11.276  21.189  0.00  0.00    +0.155 HD
BRANCH   8  11
ATOM     11  C   UNL     1     -28.512 -12.471  20.264  0.00  0.00    +0.037 A 
ATOM     12  C   UNL     1     -28.910 -13.167  21.420  0.00  0.00    +0.013 A 
ATOM     13  C   UNL     1     -28.025 -14.037  22.062  0.00  0.00    +0.001 A 
ATOM     14  C   UNL     1     -26.738 -14.231  21.555  0.00  0.00    +0.003 A 
ATOM     15  C   UNL     1     -26.333 -13.567  20.388  0.00  0.00    -0.050 A 
ATOM     16  C   UNL     1     -24.938 -13.746  19.864  0.00  0.00    +0.044 C 
ATOM     17  C   UNL     1     -27.217 -12.680  19.755  0.00  0.00    +0.016 A 
ENDBRANCH   8  11
ENDBRANCH   4   7
BRANCH   1  18
ATOM     18  O   UNL     1     -35.053  -9.211  17.113  0.00  0.00    -0.483 OA
BRANCH  18  19
ATOM     19  C   UNL     1     -34.893  -8.577  15.846  0.00  0.00    +0.324 C 
BRANCH  19  21
ATOM     20  N   UNL     1     -34.322 -10.854  14.883  0.00  0.00    -0.282 N 
ATOM     21  C   UNL     1     -34.072  -9.444  14.946  0.00  0.00    +0.255 C 
ATOM     22  O   UNL     1     -33.194  -8.922  14.208  0.00  0.00    -0.272 OA
ATOM     23  H   UNL     1     -35.045 -11.280  15.504  0.00  0.00    +0.155 HD
BRANCH  20  29
ATOM     24  C   UNL     1     -32.354 -12.327  14.639  0.00  0.00    -0.026 A 
ATOM     25  C   UNL     1     -31.550 -13.148  13.833  0.00  0.00    +0.005 A 
ATOM     26  C   UNL     1     -31.891 -13.384  12.501  0.00  0.00    +0.001 A 
ATOM     27  C   UNL     1     -33.032 -12.800  11.954  0.00  0.00    +0.005 A 
ATOM     28  C   UNL     1     -33.856 -11.975  12.737  0.00  0.00    -0.026 A 
ATOM     29  C   UNL     1     -33.512 -11.729  14.086  0.00  0.00    +0.040 A 
BRANCH  24  31
ATOM     30  C   UNL     1     -31.089 -13.193  16.615  0.00  0.00    +0.009 C 
ATOM     31  C   UNL     1     -31.918 -12.039  16.058  0.00  0.00    +0.033 C 
ENDBRANCH  24  31
BRANCH  28  32
ATOM     32  C   UNL     1     -35.062 -11.326  12.100  0.00  0.00    +0.033 C 
ATOM     33  C   UNL     1     -34.861  -9.819  11.967  0.00  0.00    +0.009 C 
ENDBRANCH  28  32
ENDBRANCH  20  29
ENDBRANCH  19  21
ENDBRANCH  18  19
ENDBRANCH   1  18
TORSDOF 8
ENDMDL
MODEL 6
REMARK VINA RESULT:    -1.336      2.089      3.821
REMARK INTER + INTRA:          -3.602
REMARK INTER:                  -4.265
REMARK INTRA:                   0.662
REMARK UNBOUND:                -1.641
REMARK  Name = 
REMARK  11 active torsions:
REMARK  status: ('A' for Active; 'I' for Inactive)
REMARK    1  A    between atoms: C_1  and  C_2
REMARK    2  A    between atoms: C_2  and  C_3
REMARK    3  A    between atoms: C_7  and  C_8
REMARK    4  A    between atoms: C_8  and  C_9
REMARK    5  A    between atoms: C_10  and  N_11
REMARK    6  A    between atoms: C_12  and  C_14
REMARK    7  A    between atoms: C_14  and  O_15
REMARK    8  A    between atoms: O_15  and  C_16
REMARK    9  A    between atoms: C_19  and  N_22
REMARK   10  A    between atoms: C_23  and  C_25
REMARK   11  A    between atoms: C_29  and  C_30
REMARK                            x       y       z     vdW  Elec       q    Type
REMARK                         _______ _______ _______ _____ _____    ______ ____
ROOT
ATOM      1  C   UNL     1     -28.928 -11.955  20.664  0.00  0.00    +0.121 A 
ATOM      2  C   UNL     1     -29.107 -11.092  19.576  0.00  0.00    +0.047 A 
ATOM      3  C   UNL     1     -29.890  -9.941  19.702  0.00  0.00    +0.027 A 
ATOM      4  C   UNL     1     -30.517  -9.640  20.924  0.00  0.00    +0.034 A 
ATOM      5  C   UNL     1     -30.321 -10.492  22.020  0.00  0.00    +0.027 A 
ATOM      6  C   UNL     1     -29.541 -11.645  21.893  0.00  0.00    +0.047 A 
ENDROOT
BRANCH   4   7
ATOM      7  N   UNL     1     -31.305  -8.447  21.088  0.00  0.00    -0.281 N 
ATOM      8  C   UNL     1     -32.729  -8.455  21.289  0.00  0.00    +0.248 C 
ATOM      9  O   UNL     1     -33.293  -9.492  21.739  0.00  0.00    -0.270 OA
ATOM     10  H   UNL     1     -30.802  -7.536  21.176  0.00  0.00    +0.155 HD
BRANCH   8  11
ATOM     11  C   UNL     1     -33.540  -7.243  21.017  0.00  0.00    +0.037 A 
ATOM     12  C   UNL     1     -34.194  -6.564  22.061  0.00  0.00    +0.013 A 
ATOM     13  C   UNL     1     -34.954  -5.422  21.796  0.00  0.00    +0.001 A 
ATOM     14  C   UNL     1     -35.062  -4.938  20.491  0.00  0.00    +0.003 A 
ATOM     15  C   UNL     1     -34.396  -5.585  19.441  0.00  0.00    -0.050 A 
ATOM     16  C   UNL     1     -34.542  -5.087  18.032  0.00  0.00    +0.044 C 
ATOM     17  C   UNL     1     -33.647  -6.742  19.705  0.00  0.00    +0.016 A 
ENDBRANCH   8  11
ENDBRANCH   4   7
BRANCH   1  18
ATOM     18  O   UNL     1     -28.134 -13.097  20.486  0.00  0.00    -0.483 OA
BRANCH  18  19
ATOM     19  C   UNL     1     -27.550 -13.487  19.245  0.00  0.00    +0.324 C 
BRANCH  19  21
ATOM     20  N   UNL     1     -29.637 -13.975  17.885  0.00  0.00    -0.282 N 
ATOM     21  C   UNL     1     -28.482 -13.159  18.122  0.00  0.00    +0.255 C 
ATOM     22  O   UNL     1     -28.274 -12.135  17.418  0.00  0.00    -0.272 OA
ATOM     23  H   UNL     1     -29.797 -14.827  18.468  0.00  0.00    +0.155 HD
BRANCH  20  29
ATOM     24  C   UNL     1     -30.152 -14.160  15.477  0.00  0.00    -0.026 A 
ATOM     25  C   UNL     1     -31.005 -13.881  14.397  0.00  0.00    +0.005 A 
ATOM     26  C   UNL     1     -32.206 -13.201  14.601  0.00  0.00    +0.001 A 
ATOM     27  C   UNL     1     -32.568 -12.785  15.881  0.00  0.00    +0.005 A 
ATOM     28  C   UNL     1     -31.736 -13.052  16.981  0.00  0.00    -0.026 A 
ATOM     29  C   UNL     1     -30.515 -13.736  16.777  0.00  0.00    +0.040 A 
BRANCH  24  31
ATOM     30  C   UNL     1     -28.215 -14.333  13.905  0.00  0.00    +0.009 C 
ATOM     31  C   UNL     1     -28.827 -14.837  15.209  0.00  0.00    +0.033 C 
ENDBRANCH  24  31
BRANCH  28  32
ATOM     32  C   UNL     1     -32.141 -12.551  18.347  0.00  0.00    +0.033 C 
ATOM     33  C   UNL     1     -33.189 -11.447  18.231  0.00  0.00    +0.009 C 
ENDBRANCH  28  32
ENDBRANCH  20  29
ENDBRANCH  19  21
ENDBRANCH  18  19
ENDBRANCH   1  18
TORSDOF 8
ENDMDL
MODEL 7
REMARK VINA RESULT:    -1.270      2.987      5.823
REMARK INTER + INTRA:          -3.505
REMARK INTER:                  -4.693
REMARK INTRA:                   1.188
REMARK UNBOUND:                -1.641
REMARK  Name = 
REMARK  11 active torsions:
REMARK  status: ('A' for Active; 'I' for Inactive)
REMARK    1  A    between atoms: C_1  and  C_2
REMARK    2  A    between atoms: C_2  and  C_3
REMARK    3  A    between atoms: C_7  and  C_8
REMARK    4  A    between atoms: C_8  and  C_9
REMARK    5  A    between atoms: C_10  and  N_11
REMARK    6  A    between atoms: C_12  and  C_14
REMARK    7  A    between atoms: C_14  and  O_15
REMARK    8  A    between atoms: O_15  and  C_16
REMARK    9  A    between atoms: C_19  and  N_22
REMARK   10  A    between atoms: C_23  and  C_25
REMARK   11  A    between atoms: C_29  and  C_30
REMARK                            x       y       z     vdW  Elec       q    Type
REMARK                         _______ _______ _______ _____ _____    ______ ____
ROOT
ATOM      1  C   UNL     1     -32.479  -9.344  16.934  0.00  0.00    +0.121 A 
ATOM      2  C   UNL     1     -31.227  -9.549  16.344  0.00  0.00    +0.047 A 
ATOM      3  C   UNL     1     -30.162 -10.056  17.093  0.00  0.00    +0.027 A 
ATOM      4  C   UNL     1     -30.333 -10.359  18.455  0.00  0.00    +0.034 A 
ATOM      5  C   UNL     1     -31.593 -10.174  19.041  0.00  0.00    +0.027 A 
ATOM      6  C   UNL     1     -32.658  -9.664  18.293  0.00  0.00    +0.047 A 
ENDROOT
BRANCH   4   7
ATOM      7  N   UNL     1     -29.261 -10.908  19.241  0.00  0.00    -0.281 N 
ATOM      8  C   UNL     1     -28.016 -11.363  18.684  0.00  0.00    +0.248 C 
ATOM      9  O   UNL     1     -27.638 -10.931  17.559  0.00  0.00    -0.270 OA
ATOM     10  H   UNL     1     -29.349 -10.872  20.281  0.00  0.00    +0.155 HD
BRANCH   8  11
ATOM     11  C   UNL     1     -27.145 -12.299  19.437  0.00  0.00    +0.037 A 
ATOM     12  C   UNL     1     -25.751 -12.296  19.248  0.00  0.00    +0.013 A 
ATOM     13  C   UNL     1     -24.938 -13.179  19.963  0.00  0.00    +0.001 A 
ATOM     14  C   UNL     1     -25.503 -14.068  20.880  0.00  0.00    +0.003 A 
ATOM     15  C   UNL     1     -26.888 -14.068  21.101  0.00  0.00    -0.050 A 
ATOM     16  C   UNL     1     -27.500 -15.048  22.059  0.00  0.00    +0.044 C 
ATOM     17  C   UNL     1     -27.705 -13.192  20.370  0.00  0.00    +0.016 A 
ENDBRANCH   8  11
ENDBRANCH   4   7
BRANCH   1  18
ATOM     18  O   UNL     1     -33.515  -8.831  16.139  0.00  0.00    -0.483 OA
BRANCH  18  19
ATOM     19  C   UNL     1     -34.612  -9.600  15.649  0.00  0.00    +0.324 C 
BRANCH  19  21
ATOM     20  N   UNL     1     -32.717 -11.084  14.842  0.00  0.00    -0.282 N 
ATOM     21  C   UNL     1     -34.114 -10.903  15.108  0.00  0.00    +0.255 C 
ATOM     22  O   UNL     1     -34.922 -11.854  14.934  0.00  0.00    -0.272 OA
ATOM     23  H   UNL     1     -32.056 -10.287  14.981  0.00  0.00    +0.155 HD
BRANCH  20  29
ATOM     24  C   UNL     1     -31.675 -13.310  15.082  0.00  0.00    -0.026 A 
ATOM     25  C   UNL     1     -31.147 -14.468  14.491  0.00  0.00    +0.005 A 
ATOM     26  C   UNL     1     -31.158 -14.624  13.105  0.00  0.00    +0.001 A 
ATOM     27  C   UNL     1     -31.688 -13.624  12.290  0.00  0.00    +0.005 A 
ATOM     28  C   UNL     1     -32.225 -12.455  12.854  0.00  0.00    -0.026 A 
ATOM     29  C   UNL     1     -32.211 -12.292  14.258  0.00  0.00    +0.040 A 
BRANCH  24  31
ATOM     30  C   UNL     1     -30.457 -14.001  17.154  0.00  0.00    +0.009 C 
ATOM     31  C   UNL     1     -31.585 -13.146  16.582  0.00  0.00    +0.033 C 
ENDBRANCH  24  31
BRANCH  28  32
ATOM     32  C   UNL     1     -32.754 -11.376  11.939  0.00  0.00    +0.033 C 
ATOM     33  C   UNL     1     -34.280 -11.345  11.962  0.00  0.00    +0.009 C 
ENDBRANCH  28  32
ENDBRANCH  20  29
ENDBRANCH  19  21
ENDBRANCH  18  19
ENDBRANCH   1  18
TORSDOF 8
ENDMDL
