MODEL 1
REMARK VINA RESULT:    -5.373      0.000      0.000
REMARK INTER + INTRA:          -6.695
REMARK INTER:                  -6.472
REMARK INTRA:                  -0.223
REMARK UNBOUND:                -0.223
REMARK  Name = 
REMARK  4 active torsions:
REMARK  status: ('A' for Active; 'I' for Inactive)
REMARK    1  A    between atoms: N_1  and  S_2
REMARK    2  A    between atoms: S_2  and  C_5
REMARK    3  A    between atoms: C_9  and  N_11
REMARK    4  A    between atoms: C_12  and  C_14
REMARK                            x       y       z     vdW  Elec       q    Type
REMARK                         _______ _______ _______ _____ _____    ______ ____
ROOT
ATOM      1  C   UNL     1     -27.670 -13.243  20.271  0.00  0.00    +0.107 A 
ATOM      2  C   UNL     1     -28.461 -12.827  21.349  0.00  0.00    +0.028 A 
ATOM      3  C   UNL     1     -29.781 -12.424  21.136  0.00  0.00    +0.004 A 
ATOM      4  C   UNL     1     -30.319 -12.436  19.848  0.00  0.00    +0.023 A 
ATOM      5  C   UNL     1     -29.545 -12.864  18.759  0.00  0.00    +0.036 A 
ATOM      6  C   UNL     1     -28.209 -13.249  18.976  0.00  0.00    +0.051 A 
ENDROOT
BRANCH   5   7
ATOM      7  N   UNL     1     -30.113 -12.844  17.438  0.00  0.00    -0.281 N 
ATOM      8  C   UNL     1     -30.692 -11.675  16.835  0.00  0.00    +0.255 C 
ATOM      9  O   UNL     1     -30.418 -10.529  17.287  0.00  0.00    -0.269 OA
ATOM     10  H   UNL     1     -30.006 -13.700  16.849  0.00  0.00    +0.155 HD
BRANCH   8  11
ATOM     11  C   UNL     1     -31.572 -11.787  15.659  0.00  0.00    +0.075 A 
ATOM     12  C   UNL     1     -31.433 -12.705  14.608  0.00  0.00    +0.024 A 
ATOM     13  C   UNL     1     -32.450 -12.547  13.669  0.00  0.00    -0.036 A 
ATOM     14  C   UNL     1     -32.778 -13.264  12.421  0.00  0.00    +0.036 C 
ATOM     15  C   UNL     1     -34.069 -12.549  11.938  0.00  0.00    +0.010 C 
ATOM     16  C   UNL     1     -34.428 -11.453  12.973  0.00  0.00    +0.043 C 
ATOM     17  C   UNL     1     -33.338 -11.580  13.953  0.00  0.00    -0.006 A 
ATOM     18  S   UNL     1     -32.955 -10.826  15.400  0.00  0.00    -0.088 S 
ENDBRANCH   8  11
ENDBRANCH   5   7
BRANCH   1  19
ATOM     19  S   UNL     1     -25.995 -13.717  20.535  0.00  0.00    +0.056 S 
ATOM     20  O   UNL     1     -25.735 -13.873  22.006  0.00  0.00    -0.153 OA
ATOM     21  O   UNL     1     -25.726 -15.031  19.855  0.00  0.00    -0.153 OA
BRANCH  19  22
ATOM     22  N   UNL     1     -24.947 -12.506  19.884  0.00  0.00    -0.204 NA
ATOM     23  H   UNL     1     -25.376 -11.580  20.105  0.00  0.00    +0.144 HD
ATOM     24  H   UNL     1     -24.971 -12.609  18.844  0.00  0.00    +0.144 HD
ENDBRANCH  19  22
ENDBRANCH   1  19
TORSDOF 4
ENDMDL
MODEL 2
REMARK VINA RESULT:    -4.386      3.011      8.172
REMARK INTER + INTRA:          -5.506
REMARK INTER:                  -5.179
REMARK INTRA:                  -0.327
REMARK UNBOUND:                -0.223
REMARK  Name = 
REMARK  4 active torsions:
REMARK  status: ('A' for Active; 'I' for Inactive)
REMARK    1  A    between atoms: N_1  and  S_2
REMARK    2  A    between atoms: S_2  and  C_5
REMARK    3  A    between atoms: C_9  and  N_11
REMARK    4  A    between atoms: C_12  and  C_14
REMARK                            x       y       z     vdW  Elec       q    Type
REMARK                         _______ _______ _______ _____ _____    ______ ____
ROOT
ATOM      1  C   UNL     1     -32.827 -11.535  14.542  0.00  0.00    +0.107 A 
ATOM      2  C   UNL     1     -33.487 -10.306  14.652  0.00  0.00    +0.028 A 
ATOM      3  C   UNL     1     -33.366  -9.547  15.818  0.00  0.00    +0.004 A 
ATOM      4  C   UNL     1     -32.583 -10.009  16.878  0.00  0.00    +0.023 A 
ATOM      5  C   UNL     1     -31.903 -11.232  16.779  0.00  0.00    +0.036 A 
ATOM      6  C   UNL     1     -32.046 -12.002  15.610  0.00  0.00    +0.051 A 
ENDROOT
BRANCH   5   7
ATOM      7  N   UNL     1     -31.123 -11.699  17.893  0.00  0.00    -0.281 N 
ATOM      8  C   UNL     1     -29.723 -11.421  18.060  0.00  0.00    +0.255 C 
ATOM      9  O   UNL     1     -29.188 -10.469  17.430  0.00  0.00    -0.269 OA
ATOM     10  H   UNL     1     -31.628 -12.178  18.673  0.00  0.00    +0.155 HD
BRANCH   8  11
ATOM     11  C   UNL     1     -28.903 -12.208  18.997  0.00  0.00    +0.075 A 
ATOM     12  C   UNL     1     -27.510 -12.362  18.949  0.00  0.00    +0.024 A 
ATOM     13  C   UNL     1     -27.058 -13.157  20.000  0.00  0.00    -0.036 A 
ATOM     14  C   UNL     1     -25.710 -13.590  20.416  0.00  0.00    +0.036 C 
ATOM     15  C   UNL     1     -25.992 -14.425  21.695  0.00  0.00    +0.010 C 
ATOM     16  C   UNL     1     -27.520 -14.403  21.956  0.00  0.00    +0.043 C 
ATOM     17  C   UNL     1     -28.017 -13.599  20.829  0.00  0.00    -0.006 A 
ATOM     18  S   UNL     1     -29.524 -13.045  20.346  0.00  0.00    -0.088 S 
ENDBRANCH   8  11
ENDBRANCH   5   7
BRANCH   1  19
ATOM     19  S   UNL     1     -33.009 -12.510  13.087  0.00  0.00    +0.056 S 
ATOM     20  O   UNL     1     -32.303 -11.846  11.938  0.00  0.00    -0.153 OA
ATOM     21  O   UNL     1     -32.403 -13.868  13.306  0.00  0.00    -0.153 OA
BRANCH  19  22
ATOM     22  N   UNL     1     -34.689 -12.681  12.717  0.00  0.00    -0.204 NA
ATOM     23  H   UNL     1     -35.221 -12.347  13.551  0.00  0.00    +0.144 HD
ATOM     24  H   UNL     1     -34.879 -13.705  12.629  0.00  0.00    +0.144 HD
ENDBRANCH  19  22
ENDBRANCH   1  19
TORSDOF 4
ENDMDL
MODEL 3
REMARK VINA RESULT:    -4.205      3.356      8.267
REMARK INTER + INTRA:          -5.288
REMARK INTER:                  -5.017
REMARK INTRA:                  -0.271
REMARK UNBOUND:                -0.223
REMARK  Name = 
REMARK  4 active torsions:
REMARK  status: ('A' for Active; 'I' for Inactive)
REMARK    1  A    between atoms: N_1  and  S_2
REMARK    2  A    between atoms: S_2  and  C_5
REMARK    3  A    between atoms: C_9  and  N_11
REMARK    4  A    between atoms: C_12  and  C_14
REMARK                            x       y       z     vdW  Elec       q    Type
REMARK                         _______ _______ _______ _____ _____    ______ ____
ROOT
ATOM      1  C   UNL     1     -33.190  -8.872  17.531  0.00  0.00    +0.107 A 
ATOM      2  C   UNL     1     -33.622  -9.046  16.211  0.00  0.00    +0.028 A 
ATOM      3  C   UNL     1     -32.986  -9.972  15.381  0.00  0.00    +0.004 A 
ATOM      4  C   UNL     1     -31.920 -10.732  15.867  0.00  0.00    +0.023 A 
ATOM      5  C   UNL     1     -31.484 -10.581  17.192  0.00  0.00    +0.036 A 
ATOM      6  C   UNL     1     -32.115  -9.631  18.016  0.00  0.00    +0.051 A 
ENDROOT
BRANCH   5   7
ATOM      7  N   UNL     1     -30.368 -11.357  17.661  0.00  0.00    -0.281 N 
ATOM      8  C   UNL     1     -30.432 -12.253  18.783  0.00  0.00    +0.255 C 
ATOM      9  O   UNL     1     -31.550 -12.670  19.194  0.00  0.00    -0.269 OA
ATOM     10  H   UNL     1     -29.493 -11.344  17.090  0.00  0.00    +0.155 HD
BRANCH   8  11
ATOM     11  C   UNL     1     -29.204 -12.732  19.439  0.00  0.00    +0.075 A 
ATOM     12  C   UNL     1     -29.137 -13.470  20.630  0.00  0.00    +0.024 A 
ATOM     13  C   UNL     1     -27.817 -13.775  20.955  0.00  0.00    -0.036 A 
ATOM     14  C   UNL     1     -27.213 -14.541  22.062  0.00  0.00    +0.036 C 
ATOM     15  C   UNL     1     -25.695 -14.480  21.740  0.00  0.00    +0.010 C 
ATOM     16  C   UNL     1     -25.515 -13.683  20.423  0.00  0.00    +0.043 C 
ATOM     17  C   UNL     1     -26.900 -13.319  20.087  0.00  0.00    -0.006 A 
ATOM     18  S   UNL     1     -27.632 -12.497  18.823  0.00  0.00    -0.088 S 
ENDBRANCH   8  11
ENDBRANCH   5   7
BRANCH   1  19
ATOM     19  S   UNL     1     -33.968  -7.678  18.566  0.00  0.00    +0.056 S 
ATOM     20  O   UNL     1     -32.934  -6.749  19.137  0.00  0.00    -0.153 OA
ATOM     21  O   UNL     1     -34.949  -6.871  17.762  0.00  0.00    -0.153 OA
BRANCH  19  22
ATOM     22  N   UNL     1     -34.799  -8.484  19.849  0.00  0.00    -0.204 NA
ATOM     23  H   UNL     1     -34.171  -9.247  20.189  0.00  0.00    +0.144 HD
ATOM     24  H   UNL     1     -35.635  -8.948  19.427  0.00  0.00    +0.144 HD
ENDBRANCH  19  22
ENDBRANCH   1  19
TORSDOF 4
ENDMDL
MODEL 4
REMARK VINA RESULT:    -4.085      3.556      4.865
REMARK INTER + INTRA:          -5.144
REMARK INTER:                  -4.776
REMARK INTRA:                  -0.368
REMARK UNBOUND:                -0.223
REMARK  Name = 
REMARK  4 active torsions:
REMARK  status: ('A' for Active; 'I' for Inactive)
REMARK    1  A    between atoms: N_1  and  S_2
REMARK    2  A    between atoms: S_2  and  C_5
REMARK    3  A    between atoms: C_9  and  N_11
REMARK    4  A    between atoms: C_12  and  C_14
REMARK                            x       y       z     vdW  Elec       q    Type
REMARK                         _______ _______ _______ _____ _____    ______ ____
ROOT
ATOM      1  C   UNL     1     -31.074  -8.433  20.756  0.00  0.00    +0.107 A 
ATOM      2  C   UNL     1     -30.711  -9.182  21.881  0.00  0.00    +0.028 A 
ATOM      3  C   UNL     1     -30.752 -10.578  21.838  0.00  0.00    +0.004 A 
ATOM      4  C   UNL     1     -31.152 -11.232  20.671  0.00  0.00    +0.023 A 
ATOM      5  C   UNL     1     -31.505 -10.496  19.530  0.00  0.00    +0.036 A 
ATOM      6  C   UNL     1     -31.482  -9.091  19.586  0.00  0.00    +0.051 A 
ENDROOT
BRANCH   5   7
ATOM      7  N   UNL     1     -31.938 -11.192  18.348  0.00  0.00    -0.281 N 
ATOM      8  C   UNL     1     -31.091 -11.446  17.215  0.00  0.00    +0.255 C 
ATOM      9  O   UNL     1     -29.837 -11.385  17.337  0.00  0.00    -0.269 OA
ATOM     10  H   UNL     1     -32.889 -11.624  18.359  0.00  0.00    +0.155 HD
BRANCH   8  11
ATOM     11  C   UNL     1     -31.664 -11.824  15.912  0.00  0.00    +0.075 A 
ATOM     12  C   UNL     1     -32.848 -11.322  15.353  0.00  0.00    +0.024 A 
ATOM     13  C   UNL     1     -33.086 -11.880  14.099  0.00  0.00    -0.036 A 
ATOM     14  C   UNL     1     -34.150 -11.674  13.099  0.00  0.00    +0.036 C 
ATOM     15  C   UNL     1     -33.728 -12.617  11.940  0.00  0.00    +0.010 C 
ATOM     16  C   UNL     1     -32.400 -13.309  12.343  0.00  0.00    +0.043 C 
ATOM     17  C   UNL     1     -32.157 -12.758  13.685  0.00  0.00    -0.006 A 
ATOM     18  S   UNL     1     -30.944 -12.926  14.830  0.00  0.00    -0.088 S 
ENDBRANCH   8  11
ENDBRANCH   5   7
BRANCH   1  19
ATOM     19  S   UNL     1     -31.058  -6.674  20.822  0.00  0.00    +0.056 S 
ATOM     20  O   UNL     1     -31.703  -6.112  19.587  0.00  0.00    -0.153 OA
ATOM     21  O   UNL     1     -31.827  -6.203  22.025  0.00  0.00    -0.153 OA
BRANCH  19  22
ATOM     22  N   UNL     1     -29.424  -6.118  20.929  0.00  0.00    -0.204 NA
ATOM     23  H   UNL     1     -29.276  -5.792  21.910  0.00  0.00    +0.144 HD
ATOM     24  H   UNL     1     -29.348  -5.275  20.316  0.00  0.00    +0.144 HD
ENDBRANCH  19  22
ENDBRANCH   1  19
TORSDOF 4
ENDMDL
MODEL 5
REMARK VINA RESULT:    -4.044      4.522      5.970
REMARK INTER + INTRA:          -5.094
REMARK INTER:                  -4.771
REMARK INTRA:                  -0.323
REMARK UNBOUND:                -0.223
REMARK  Name = 
REMARK  4 active torsions:
REMARK  status: ('A' for Active; 'I' for Inactive)
REMARK    1  A    between atoms: N_1  and  S_2
REMARK    2  A    between atoms: S_2  and  C_5
REMARK    3  A    between atoms: C_9  and  N_11
REMARK    4  A    between atoms: C_12  and  C_14
REMARK                            x       y       z     vdW  Elec       q    Type
REMARK                         _______ _______ _______ _____ _____    ______ ____
ROOT
ATOM      1  C   UNL     1     -32.607  -7.719  19.369  0.00  0.00    +0.107 A 
ATOM      2  C   UNL     1     -33.882  -7.162  19.210  0.00  0.00    +0.028 A 
ATOM      3  C   UNL     1     -34.723  -7.613  18.191  0.00  0.00    +0.004 A 
ATOM      4  C   UNL     1     -34.298  -8.624  17.327  0.00  0.00    +0.023 A 
ATOM      5  C   UNL     1     -33.030  -9.204  17.481  0.00  0.00    +0.036 A 
ATOM      6  C   UNL     1     -32.178  -8.730  18.496  0.00  0.00    +0.051 A 
ENDROOT
BRANCH   5   7
ATOM      7  N   UNL     1     -32.604 -10.226  16.563  0.00  0.00    -0.281 N 
ATOM      8  C   UNL     1     -32.367 -11.592  16.942  0.00  0.00    +0.255 C 
ATOM      9  O   UNL     1     -32.852 -12.043  18.016  0.00  0.00    -0.269 OA
ATOM     10  H   UNL     1     -32.567  -9.983  15.547  0.00  0.00    +0.155 HD
BRANCH   8  11
ATOM     11  C   UNL     1     -31.596 -12.495  16.071  0.00  0.00    +0.075 A 
ATOM     12  C   UNL     1     -31.753 -12.640  14.685  0.00  0.00    +0.024 A 
ATOM     13  C   UNL     1     -30.848 -13.567  14.173  0.00  0.00    -0.036 A 
ATOM     14  C   UNL     1     -30.579 -14.050  12.806  0.00  0.00    +0.036 C 
ATOM     15  C   UNL     1     -29.407 -15.048  13.013  0.00  0.00    +0.010 C 
ATOM     16  C   UNL     1     -29.048 -15.062  14.521  0.00  0.00    +0.043 C 
ATOM     17  C   UNL     1     -30.025 -14.116  15.082  0.00  0.00    -0.006 A 
ATOM     18  S   UNL     1     -30.333 -13.505  16.612  0.00  0.00    -0.088 S 
ENDBRANCH   8  11
ENDBRANCH   5   7
BRANCH   1  19
ATOM     19  S   UNL     1     -31.533  -7.124  20.630  0.00  0.00    +0.056 S 
ATOM     20  O   UNL     1     -31.318  -5.647  20.462  0.00  0.00    -0.153 OA
ATOM     21  O   UNL     1     -32.148  -7.371  21.980  0.00  0.00    -0.153 OA
BRANCH  19  22
ATOM     22  N   UNL     1     -30.017  -7.949  20.529  0.00  0.00    -0.204 NA
ATOM     23  H   UNL     1     -29.319  -7.261  20.168  0.00  0.00    +0.144 HD
ATOM     24  H   UNL     1     -30.120  -8.687  19.796  0.00  0.00    +0.144 HD
ENDBRANCH  19  22
ENDBRANCH   1  19
TORSDOF 4
ENDMDL
MODEL 6
REMARK VINA RESULT:    -3.859      3.855      5.437
REMARK INTER + INTRA:          -4.872
REMARK INTER:                  -4.585
REMARK INTRA:                  -0.287
REMARK UNBOUND:                -0.223
REMARK  Name = 
REMARK  4 active torsions:
REMARK  status: ('A' for Active; 'I' for Inactive)
REMARK    1  A    between atoms: N_1  and  S_2
REMARK    2  A    between atoms: S_2  and  C_5
REMARK    3  A    between atoms: C_9  and  N_11
REMARK    4  A    between atoms: C_12  and  C_14
REMARK                            x       y       z     vdW  Elec       q    Type
REMARK                         _______ _______ _______ _____ _____    ______ ____
ROOT
ATOM      1  C   UNL     1     -32.151  -8.745  20.718  0.00  0.00    +0.107 A 
ATOM      2  C   UNL     1     -32.817  -9.282  21.826  0.00  0.00    +0.028 A 
ATOM      3  C   UNL     1     -33.325 -10.581  21.777  0.00  0.00    +0.004 A 
ATOM      4  C   UNL     1     -33.170 -11.353  20.623  0.00  0.00    +0.023 A 
ATOM      5  C   UNL     1     -32.493 -10.835  19.509  0.00  0.00    +0.036 A 
ATOM      6  C   UNL     1     -32.001  -9.518  19.557  0.00  0.00    +0.051 A 
ENDROOT
BRANCH   5   7
ATOM      7  N   UNL     1     -32.367 -11.640  18.323  0.00  0.00    -0.281 N 
ATOM      8  C   UNL     1     -31.390 -12.681  18.164  0.00  0.00    +0.255 C 
ATOM      9  O   UNL     1     -30.826 -13.178  19.177  0.00  0.00    -0.269 OA
ATOM     10  H   UNL     1     -33.093 -11.527  17.580  0.00  0.00    +0.155 HD
BRANCH   8  11
ATOM     11  C   UNL     1     -31.064 -13.215  16.830  0.00  0.00    +0.075 A 
ATOM     12  C   UNL     1     -31.677 -12.853  15.623  0.00  0.00    +0.024 A 
ATOM     13  C   UNL     1     -31.111 -13.537  14.549  0.00  0.00    -0.036 A 
ATOM     14  C   UNL     1     -31.363 -13.499  13.096  0.00  0.00    +0.036 C 
ATOM     15  C   UNL     1     -30.324 -14.508  12.536  0.00  0.00    +0.010 C 
ATOM     16  C   UNL     1     -29.501 -15.062  13.727  0.00  0.00    +0.043 C 
ATOM     17  C   UNL     1     -30.116 -14.378  14.875  0.00  0.00    -0.006 A 
ATOM     18  S   UNL     1     -29.833 -14.354  16.527  0.00  0.00    -0.088 S 
ENDBRANCH   8  11
ENDBRANCH   5   7
BRANCH   1  19
ATOM     19  S   UNL     1     -31.542  -7.094  20.766  0.00  0.00    +0.056 S 
ATOM     20  O   UNL     1     -32.042  -6.331  19.572  0.00  0.00    -0.153 OA
ATOM     21  O   UNL     1     -32.028  -6.409  22.014  0.00  0.00    -0.153 OA
BRANCH  19  22
ATOM     22  N   UNL     1     -29.813  -7.119  20.759  0.00  0.00    -0.204 NA
ATOM     23  H   UNL     1     -29.502  -6.528  19.956  0.00  0.00    +0.144 HD
ATOM     24  H   UNL     1     -29.524  -8.099  20.541  0.00  0.00    +0.144 HD
ENDBRANCH  19  22
ENDBRANCH   1  19
TORSDOF 4
ENDMDL
MODEL 7
REMARK VINA RESULT:    -3.825      5.058      5.796
REMARK INTER + INTRA:          -4.831
REMARK INTER:                  -4.477
REMARK INTRA:                  -0.354
REMARK UNBOUND:                -0.223
REMARK  Name = 
REMARK  4 active torsions:
REMARK  status: ('A' for Active; 'I' for Inactive)
REMARK    1  A    between atoms: N_1  and  S_2
REMARK    2  A    between atoms: S_2  and  C_5
REMARK    3  A    between atoms: C_9  and  N_11
REMARK    4  A    between atoms: C_12  and  C_14
REMARK                            x       y       z     vdW  Elec       q    Type
REMARK                         _______ _______ _______ _____ _____    ______ ____
ROOT
ATOM      1  C   UNL     1     -32.736  -7.428  19.972  0.00  0.00    +0.107 A 
ATOM      2  C   UNL     1     -33.789  -6.528  20.180  0.00  0.00    +0.028 A 
ATOM      3  C   UNL     1     -34.788  -6.383  19.215  0.00  0.00    +0.004 A 
ATOM      4  C   UNL     1     -34.744  -7.136  18.040  0.00  0.00    +0.023 A 
ATOM      5  C   UNL     1     -33.704  -8.052  17.823  0.00  0.00    +0.036 A 
ATOM      6  C   UNL     1     -32.689  -8.179  18.789  0.00  0.00    +0.051 A 
ENDROOT
BRANCH   5   7
ATOM      7  N   UNL     1     -33.666  -8.798  16.594  0.00  0.00    -0.281 N 
ATOM      8  C   UNL     1     -34.080 -10.170  16.479  0.00  0.00    +0.255 C 
ATOM      9  O   UNL     1     -34.822 -10.682  17.361  0.00  0.00    -0.269 OA
ATOM     10  H   UNL     1     -33.422  -8.282  15.719  0.00  0.00    +0.155 HD
BRANCH   8  11
ATOM     11  C   UNL     1     -33.686 -10.983  15.315  0.00  0.00    +0.075 A 
ATOM     12  C   UNL     1     -32.471 -11.665  15.157  0.00  0.00    +0.024 A 
ATOM     13  C   UNL     1     -32.438 -12.352  13.945  0.00  0.00    -0.036 A 
ATOM     14  C   UNL     1     -31.429 -13.230  13.322  0.00  0.00    +0.036 C 
ATOM     15  C   UNL     1     -32.108 -13.652  11.991  0.00  0.00    +0.010 C 
ATOM     16  C   UNL     1     -33.511 -12.994  11.938  0.00  0.00    +0.043 C 
ATOM     17  C   UNL     1     -33.545 -12.232  13.195  0.00  0.00    -0.006 A 
ATOM     18  S   UNL     1     -34.682 -11.266  13.961  0.00  0.00    -0.088 S 
ENDBRANCH   8  11
ENDBRANCH   5   7
BRANCH   1  19
ATOM     19  S   UNL     1     -31.457  -7.584  21.172  0.00  0.00    +0.056 S 
ATOM     20  O   UNL     1     -31.399  -6.345  22.019  0.00  0.00    -0.153 OA
ATOM     21  O   UNL     1     -31.736  -8.764  22.061  0.00  0.00    -0.153 OA
BRANCH  19  22
ATOM     22  N   UNL     1     -29.943  -7.812  20.370  0.00  0.00    -0.204 NA
ATOM     23  H   UNL     1     -29.490  -8.647  20.803  0.00  0.00    +0.144 HD
ATOM     24  H   UNL     1     -29.345  -6.988  20.606  0.00  0.00    +0.144 HD
ENDBRANCH  19  22
ENDBRANCH   1  19
TORSDOF 4
ENDMDL
MODEL 8
REMARK VINA RESULT:    -3.762      4.625      5.549
REMARK INTER + INTRA:          -4.755
REMARK INTER:                  -4.445
REMARK INTRA:                  -0.309
REMARK UNBOUND:                -0.223
REMARK  Name = 
REMARK  4 active torsions:
REMARK  status: ('A' for Active; 'I' for Inactive)
REMARK    1  A    between atoms: N_1  and  S_2
REMARK    2  A    between atoms: S_2  and  C_5
REMARK    3  A    between atoms: C_9  and  N_11
REMARK    4  A    between atoms: C_12  and  C_14
REMARK                            x       y       z     vdW  Elec       q    Type
REMARK                         _______ _______ _______ _____ _____    ______ ____
ROOT
ATOM      1  C   UNL     1     -32.501  -7.814  20.792  0.00  0.00    +0.107 A 
ATOM      2  C   UNL     1     -33.086  -8.344  21.948  0.00  0.00    +0.028 A 
ATOM      3  C   UNL     1     -33.886  -9.486  21.870  0.00  0.00    +0.004 A 
ATOM      4  C   UNL     1     -34.104 -10.106  20.638  0.00  0.00    +0.023 A 
ATOM      5  C   UNL     1     -33.514  -9.597  19.472  0.00  0.00    +0.036 A 
ATOM      6  C   UNL     1     -32.726  -8.434  19.554  0.00  0.00    +0.051 A 
ENDROOT
BRANCH   5   7
ATOM      7  N   UNL     1     -33.774 -10.239  18.211  0.00  0.00    -0.281 N 
ATOM      8  C   UNL     1     -32.996 -11.332  17.696  0.00  0.00    +0.255 C 
ATOM      9  O   UNL     1     -32.272 -12.013  18.473  0.00  0.00    -0.269 OA
ATOM     10  H   UNL     1     -34.637  -9.960  17.693  0.00  0.00    +0.155 HD
BRANCH   8  11
ATOM     11  C   UNL     1     -33.066 -11.705  16.273  0.00  0.00    +0.075 A 
ATOM     12  C   UNL     1     -32.007 -12.195  15.495  0.00  0.00    +0.024 A 
ATOM     13  C   UNL     1     -32.426 -12.464  14.194  0.00  0.00    -0.036 A 
ATOM     14  C   UNL     1     -31.731 -13.013  13.014  0.00  0.00    +0.036 C 
ATOM     15  C   UNL     1     -32.850 -13.056  11.938  0.00  0.00    +0.010 C 
ATOM     16  C   UNL     1     -34.160 -12.537  12.586  0.00  0.00    +0.043 C 
ATOM     17  C   UNL     1     -33.723 -12.211  13.953  0.00  0.00    -0.006 A 
ATOM     18  S   UNL     1     -34.484 -11.635  15.330  0.00  0.00    -0.088 S 
ENDBRANCH   8  11
ENDBRANCH   5   7
BRANCH   1  19
ATOM     19  S   UNL     1     -31.523  -6.353  20.885  0.00  0.00    +0.056 S 
ATOM     20  O   UNL     1     -31.692  -5.546  19.628  0.00  0.00    -0.153 OA
ATOM     21  O   UNL     1     -31.964  -5.520  22.056  0.00  0.00    -0.153 OA
BRANCH  19  22
ATOM     22  N   UNL     1     -29.861  -6.786  21.080  0.00  0.00    -0.204 NA
ATOM     23  H   UNL     1     -29.448  -6.115  21.765  0.00  0.00    +0.144 HD
ATOM     24  H   UNL     1     -29.390  -6.610  20.164  0.00  0.00    +0.144 HD
ENDBRANCH  19  22
ENDBRANCH   1  19
TORSDOF 4
ENDMDL
MODEL 9
REMARK VINA RESULT:    -3.645      4.141      8.431
REMARK INTER + INTRA:          -4.613
REMARK INTER:                  -4.278
REMARK INTRA:                  -0.335
REMARK UNBOUND:                -0.223
REMARK  Name = 
REMARK  4 active torsions:
REMARK  status: ('A' for Active; 'I' for Inactive)
REMARK    1  A    between atoms: N_1  and  S_2
REMARK    2  A    between atoms: S_2  and  C_5
REMARK    3  A    between atoms: C_9  and  N_11
REMARK    4  A    between atoms: C_12  and  C_14
REMARK                            x       y       z     vdW  Elec       q    Type
REMARK                         _______ _______ _______ _____ _____    ______ ____
ROOT
ATOM      1  C   UNL     1     -33.524  -8.060  18.661  0.00  0.00    +0.107 A 
ATOM      2  C   UNL     1     -34.284  -8.819  17.763  0.00  0.00    +0.028 A 
ATOM      3  C   UNL     1     -33.972 -10.162  17.540  0.00  0.00    +0.004 A 
ATOM      4  C   UNL     1     -32.903 -10.755  18.214  0.00  0.00    +0.023 A 
ATOM      5  C   UNL     1     -32.140 -10.013  19.128  0.00  0.00    +0.036 A 
ATOM      6  C   UNL     1     -32.445  -8.655  19.332  0.00  0.00    +0.051 A 
ENDROOT
BRANCH   5   7
ATOM      7  N   UNL     1     -31.027 -10.639  19.791  0.00  0.00    -0.281 N 
ATOM      8  C   UNL     1     -29.788 -10.963  19.139  0.00  0.00    +0.255 C 
ATOM      9  O   UNL     1     -29.481 -10.403  18.051  0.00  0.00    -0.269 OA
ATOM     10  H   UNL     1     -31.089 -10.769  20.826  0.00  0.00    +0.155 HD
BRANCH   8  11
ATOM     11  C   UNL     1     -28.841 -11.913  19.746  0.00  0.00    +0.075 A 
ATOM     12  C   UNL     1     -27.516 -12.131  19.343  0.00  0.00    +0.024 A 
ATOM     13  C   UNL     1     -26.898 -13.085  20.148  0.00  0.00    -0.036 A 
ATOM     14  C   UNL     1     -25.531 -13.641  20.169  0.00  0.00    +0.036 C 
ATOM     15  C   UNL     1     -25.576 -14.630  21.366  0.00  0.00    +0.010 C 
ATOM     16  C   UNL     1     -26.993 -14.565  21.992  0.00  0.00    +0.043 C 
ATOM     17  C   UNL     1     -27.671 -13.588  21.125  0.00  0.00    -0.006 A 
ATOM     18  S   UNL     1     -29.197 -12.895  21.094  0.00  0.00    -0.088 S 
ENDBRANCH   8  11
ENDBRANCH   5   7
BRANCH   1  19
ATOM     19  S   UNL     1     -33.894  -6.358  18.914  0.00  0.00    +0.056 S 
ATOM     20  O   UNL     1     -35.060  -6.224  19.853  0.00  0.00    -0.153 OA
ATOM     21  O   UNL     1     -32.706  -5.664  19.519  0.00  0.00    -0.153 OA
BRANCH  19  22
ATOM     22  N   UNL     1     -34.281  -5.623  17.398  0.00  0.00    -0.204 NA
ATOM     23  H   UNL     1     -35.186  -5.119  17.524  0.00  0.00    +0.144 HD
ATOM     24  H   UNL     1     -34.459  -6.398  16.720  0.00  0.00    +0.144 HD
ENDBRANCH  19  22
ENDBRANCH   1  19
TORSDOF 4
ENDMDL
