MODEL 1
REMARK VINA RESULT:    -4.981      0.000      0.000
REMARK INTER + INTRA:          -6.698
REMARK INTER:                  -6.292
REMARK INTRA:                  -0.406
REMARK UNBOUND:                -0.406
REMARK  Name = 
REMARK  5 active torsions:
REMARK  status: ('A' for Active; 'I' for Inactive)
REMARK    1  A    between atoms: C_2  and  C_4
REMARK    2  A    between atoms: C_4  and  O_5
REMARK    3  A    between atoms: C_4  and  C_6
REMARK    4  A    between atoms: N_9  and  C_10
REMARK    5  A    between atoms: C_10  and  C_11
REMARK                            x       y       z     vdW  Elec       q    Type
REMARK                         _______ _______ _______ _____ _____    ______ ____
ROOT
ATOM      1  C   UNL     1     -28.749 -13.004  20.329  0.00  0.00    +0.029 C 
ATOM      2  C   UNL     1     -27.801 -12.117  19.481  0.00  0.00    +0.022 C 
ATOM      3  C   UNL     1     -28.562 -11.098  18.610  0.00  0.00    +0.085 C 
ATOM      4  N   UNL     1     -29.931 -11.572  18.335  0.00  0.00    -0.298 NA
ATOM      5  C   UNL     1     -30.736 -11.587  19.582  0.00  0.00    +0.085 C 
ATOM      6  C   UNL     1     -29.963 -12.174  20.785  0.00  0.00    +0.022 C 
ENDROOT
BRANCH   1   7
ATOM      7  C   UNL     1     -28.015 -13.635  21.537  0.00  0.00    +0.203 C 
BRANCH   7   9
ATOM      8  N   UNL     1     -26.435 -15.062  20.131  0.00  0.00    -0.327 N 
ATOM      9  C   UNL     1     -26.628 -14.087  21.157  0.00  0.00    +0.239 C 
ATOM     10  O   UNL     1     -25.626 -13.584  21.734  0.00  0.00    -0.273 OA
ATOM     11  H   UNL     1     -27.251 -15.487  19.638  0.00  0.00    +0.145 HD
ATOM     12  H   UNL     1     -25.471 -15.362  19.865  0.00  0.00    +0.145 HD
ENDBRANCH   7   9
BRANCH   7  13
ATOM     13  O   UNL     1     -28.745 -14.737  22.012  0.00  0.00    -0.382 OA
ATOM     14  H   UNL     1     -28.112 -15.297  22.535  0.00  0.00    +0.210 HD
ENDBRANCH   7  13
ENDBRANCH   1   7
BRANCH   4  15
ATOM     15  C   UNL     1     -30.570 -10.734  17.299  0.00  0.00    +0.119 C 
BRANCH  15  16
ATOM     16  C   UNL     1     -30.954 -11.566  16.103  0.00  0.00    -0.030 A 
ATOM     17  C   UNL     1     -31.727 -11.016  15.068  0.00  0.00    +0.008 A 
ATOM     18  C   UNL     1     -32.100 -11.803  13.974  0.00  0.00    +0.041 A 
ATOM     19  C   UNL     1     -31.706 -13.143  13.907  0.00  0.00    +0.158 A 
ATOM     20  F   UNL     1     -32.072 -13.903  12.844  0.00  0.00    -0.202 F 
ATOM     21  C   UNL     1     -30.941 -13.699  14.937  0.00  0.00    +0.159 A 
ATOM     22  F   UNL     1     -30.563 -15.000  14.877  0.00  0.00    -0.202 F 
ATOM     23  C   UNL     1     -30.568 -12.914  16.033  0.00  0.00    +0.046 A 
ENDBRANCH  15  16
ENDBRANCH   4  15
TORSDOF 5
ENDMDL
MODEL 2
REMARK VINA RESULT:    -4.740      1.557      2.013
REMARK INTER + INTRA:          -6.394
REMARK INTER:                  -6.126
REMARK INTRA:                  -0.268
REMARK UNBOUND:                -0.406
REMARK  Name = 
REMARK  5 active torsions:
REMARK  status: ('A' for Active; 'I' for Inactive)
REMARK    1  A    between atoms: C_2  and  C_4
REMARK    2  A    between atoms: C_4  and  O_5
REMARK    3  A    between atoms: C_4  and  C_6
REMARK    4  A    between atoms: N_9  and  C_10
REMARK    5  A    between atoms: C_10  and  C_11
REMARK                            x       y       z     vdW  Elec       q    Type
REMARK                         _______ _______ _______ _____ _____    ______ ____
ROOT
ATOM      1  C   UNL     1     -29.816 -12.377  19.024  0.00  0.00    +0.029 C 
ATOM      2  C   UNL     1     -29.248 -10.964  18.736  0.00  0.00    +0.022 C 
ATOM      3  C   UNL     1     -30.190 -10.111  17.864  0.00  0.00    +0.085 C 
ATOM      4  N   UNL     1     -31.066 -10.974  17.051  0.00  0.00    -0.298 NA
ATOM      5  C   UNL     1     -32.019 -11.711  17.918  0.00  0.00    +0.085 C 
ATOM      6  C   UNL     1     -31.346 -12.297  19.181  0.00  0.00    +0.022 C 
ENDROOT
BRANCH   1   7
ATOM      7  C   UNL     1     -29.157 -13.017  20.269  0.00  0.00    +0.203 C 
BRANCH   7   9
ATOM      8  N   UNL     1     -27.509 -14.950  20.509  0.00  0.00    -0.327 N 
ATOM      9  C   UNL     1     -27.863 -13.703  19.910  0.00  0.00    +0.239 C 
ATOM     10  O   UNL     1     -27.095 -13.181  19.058  0.00  0.00    -0.273 OA
ATOM     11  H   UNL     1     -28.134 -15.401  21.214  0.00  0.00    +0.145 HD
ATOM     12  H   UNL     1     -26.617 -15.425  20.247  0.00  0.00    +0.145 HD
ENDBRANCH   7   9
BRANCH   7  13
ATOM     13  O   UNL     1     -30.033 -13.956  20.840  0.00  0.00    -0.382 OA
ATOM     14  H   UNL     1     -29.778 -14.845  20.476  0.00  0.00    +0.210 HD
ENDBRANCH   7  13
ENDBRANCH   1   7
BRANCH   4  15
ATOM     15  C   UNL     1     -31.782 -10.174  16.035  0.00  0.00    +0.119 C 
BRANCH  15  16
ATOM     16  C   UNL     1     -32.303 -11.057  14.932  0.00  0.00    -0.030 A 
ATOM     17  C   UNL     1     -33.616 -10.908  14.456  0.00  0.00    +0.008 A 
ATOM     18  C   UNL     1     -34.100 -11.749  13.450  0.00  0.00    +0.041 A 
ATOM     19  C   UNL     1     -33.278 -12.746  12.914  0.00  0.00    +0.158 A 
ATOM     20  F   UNL     1     -33.753 -13.560  11.938  0.00  0.00    -0.202 F 
ATOM     21  C   UNL     1     -31.972 -12.904  13.386  0.00  0.00    +0.159 A 
ATOM     22  F   UNL     1     -31.175 -13.873  12.872  0.00  0.00    -0.202 F 
ATOM     23  C   UNL     1     -31.486 -12.064  14.394  0.00  0.00    +0.046 A 
ENDBRANCH  15  16
ENDBRANCH   4  15
TORSDOF 5
ENDMDL
MODEL 3
REMARK VINA RESULT:    -4.460      3.180      4.779
REMARK INTER + INTRA:          -6.039
REMARK INTER:                  -5.440
REMARK INTRA:                  -0.600
REMARK UNBOUND:                -0.406
REMARK  Name = 
REMARK  5 active torsions:
REMARK  status: ('A' for Active; 'I' for Inactive)
REMARK    1  A    between atoms: C_2  and  C_4
REMARK    2  A    between atoms: C_4  and  O_5
REMARK    3  A    between atoms: C_4  and  C_6
REMARK    4  A    between atoms: N_9  and  C_10
REMARK    5  A    between atoms: C_10  and  C_11
REMARK                            x       y       z     vdW  Elec       q    Type
REMARK                         _______ _______ _______ _____ _____    ______ ____
ROOT
ATOM      1  C   UNL     1     -30.891 -10.175  19.208  0.00  0.00    +0.029 C 
ATOM      2  C   UNL     1     -31.576 -11.365  19.928  0.00  0.00    +0.022 C 
ATOM      3  C   UNL     1     -30.994 -12.729  19.508  0.00  0.00    +0.085 C 
ATOM      4  N   UNL     1     -30.389 -12.642  18.166  0.00  0.00    -0.298 NA
ATOM      5  C   UNL     1     -29.182 -11.778  18.196  0.00  0.00    +0.085 C 
ATOM      6  C   UNL     1     -29.395 -10.483  19.011  0.00  0.00    +0.022 C 
ENDROOT
BRANCH   1   7
ATOM      7  C   UNL     1     -31.095  -8.847  19.976  0.00  0.00    +0.203 C 
BRANCH   7   9
ATOM      8  N   UNL     1     -32.445  -8.234  17.900  0.00  0.00    -0.327 N 
ATOM      9  C   UNL     1     -32.017  -7.920  19.226  0.00  0.00    +0.239 C 
ATOM     10  O   UNL     1     -32.433  -6.866  19.780  0.00  0.00    -0.273 OA
ATOM     11  H   UNL     1     -32.117  -9.104  17.424  0.00  0.00    +0.145 HD
ATOM     12  H   UNL     1     -33.094  -7.594  17.390  0.00  0.00    +0.145 HD
ENDBRANCH   7   9
BRANCH   7  13
ATOM     13  O   UNL     1     -29.856  -8.212  20.162  0.00  0.00    -0.382 OA
ATOM     14  H   UNL     1     -30.045  -7.247  20.303  0.00  0.00    +0.210 HD
ENDBRANCH   7  13
ENDBRANCH   1   7
BRANCH   4  15
ATOM     15  C   UNL     1     -30.065 -13.991  17.657  0.00  0.00    +0.119 C 
BRANCH  15  16
ATOM     16  C   UNL     1     -30.206 -14.043  16.158  0.00  0.00    -0.030 A 
ATOM     17  C   UNL     1     -29.202 -14.619  15.364  0.00  0.00    +0.008 A 
ATOM     18  C   UNL     1     -29.329 -14.640  13.972  0.00  0.00    +0.041 A 
ATOM     19  C   UNL     1     -30.459 -14.083  13.364  0.00  0.00    +0.158 A 
ATOM     20  F   UNL     1     -30.578 -14.105  12.012  0.00  0.00    -0.202 F 
ATOM     21  C   UNL     1     -31.460 -13.503  14.147  0.00  0.00    +0.159 A 
ATOM     22  F   UNL     1     -32.554 -12.957  13.559  0.00  0.00    -0.202 F 
ATOM     23  C   UNL     1     -31.335 -13.480  15.540  0.00  0.00    +0.046 A 
ENDBRANCH  15  16
ENDBRANCH   4  15
TORSDOF 5
ENDMDL
MODEL 4
REMARK VINA RESULT:    -4.396      2.443      3.515
REMARK INTER + INTRA:          -5.958
REMARK INTER:                  -5.847
REMARK INTRA:                  -0.112
REMARK UNBOUND:                -0.406
REMARK  Name = 
REMARK  5 active torsions:
REMARK  status: ('A' for Active; 'I' for Inactive)
REMARK    1  A    between atoms: C_2  and  C_4
REMARK    2  A    between atoms: C_4  and  O_5
REMARK    3  A    between atoms: C_4  and  C_6
REMARK    4  A    between atoms: N_9  and  C_10
REMARK    5  A    between atoms: C_10  and  C_11
REMARK                            x       y       z     vdW  Elec       q    Type
REMARK                         _______ _______ _______ _____ _____    ______ ____
ROOT
ATOM      1  C   UNL     1     -30.197 -13.005  18.405  0.00  0.00    +0.029 C 
ATOM      2  C   UNL     1     -31.381 -13.893  17.943  0.00  0.00    +0.022 C 
ATOM      3  C   UNL     1     -31.260 -14.324  16.469  0.00  0.00    +0.085 C 
ATOM      4  N   UNL     1     -30.432 -13.364  15.715  0.00  0.00    -0.298 NA
ATOM      5  C   UNL     1     -29.023 -13.419  16.177  0.00  0.00    +0.085 C 
ATOM      6  C   UNL     1     -28.901 -13.472  17.717  0.00  0.00    +0.022 C 
ENDROOT
BRANCH   1   7
ATOM      7  C   UNL     1     -30.047 -13.007  19.946  0.00  0.00    +0.203 C 
BRANCH   7   9
ATOM      8  N   UNL     1     -28.073 -14.506  20.553  0.00  0.00    -0.327 N 
ATOM      9  C   UNL     1     -28.607 -13.196  20.352  0.00  0.00    +0.239 C 
ATOM     10  O   UNL     1     -27.860 -12.191  20.497  0.00  0.00    -0.273 OA
ATOM     11  H   UNL     1     -28.674 -15.352  20.433  0.00  0.00    +0.145 HD
ATOM     12  H   UNL     1     -27.072 -14.630  20.822  0.00  0.00    +0.145 HD
ENDBRANCH   7   9
BRANCH   7  13
ATOM     13  O   UNL     1     -30.821 -14.041  20.497  0.00  0.00    -0.382 OA
ATOM     14  H   UNL     1     -30.440 -14.239  21.393  0.00  0.00    +0.210 HD
ENDBRANCH   7  13
ENDBRANCH   1   7
BRANCH   4  15
ATOM     15  C   UNL     1     -30.527 -13.628  14.264  0.00  0.00    +0.119 C 
BRANCH  15  16
ATOM     16  C   UNL     1     -31.745 -12.961  13.679  0.00  0.00    -0.030 A 
ATOM     17  C   UNL     1     -32.317 -13.434  12.487  0.00  0.00    +0.008 A 
ATOM     18  C   UNL     1     -33.432 -12.793  11.939  0.00  0.00    +0.041 A 
ATOM     19  C   UNL     1     -33.981 -11.675  12.574  0.00  0.00    +0.158 A 
ATOM     20  F   UNL     1     -35.062 -11.056  12.038  0.00  0.00    -0.202 F 
ATOM     21  C   UNL     1     -33.414 -11.195  13.758  0.00  0.00    +0.159 A 
ATOM     22  F   UNL     1     -33.941 -10.108  14.374  0.00  0.00    -0.202 F 
ATOM     23  C   UNL     1     -32.297 -11.834  14.309  0.00  0.00    +0.046 A 
ENDBRANCH  15  16
ENDBRANCH   4  15
TORSDOF 5
ENDMDL
MODEL 5
REMARK VINA RESULT:    -4.271      4.646      6.680
REMARK INTER + INTRA:          -5.800
REMARK INTER:                  -5.246
REMARK INTRA:                  -0.554
REMARK UNBOUND:                -0.406
REMARK  Name = 
REMARK  5 active torsions:
REMARK  status: ('A' for Active; 'I' for Inactive)
REMARK    1  A    between atoms: C_2  and  C_4
REMARK    2  A    between atoms: C_4  and  O_5
REMARK    3  A    between atoms: C_4  and  C_6
REMARK    4  A    between atoms: N_9  and  C_10
REMARK    5  A    between atoms: C_10  and  C_11
REMARK                            x       y       z     vdW  Elec       q    Type
REMARK                         _______ _______ _______ _____ _____    ______ ____
ROOT
ATOM      1  C   UNL     1     -33.362  -9.785  16.481  0.00  0.00    +0.029 C 
ATOM      2  C   UNL     1     -34.062 -11.085  16.954  0.00  0.00    +0.022 C 
ATOM      3  C   UNL     1     -33.063 -12.177  17.382  0.00  0.00    +0.085 C 
ATOM      4  N   UNL     1     -31.762 -11.978  16.717  0.00  0.00    -0.298 NA
ATOM      5  C   UNL     1     -31.110 -10.739  17.211  0.00  0.00    +0.085 C 
ATOM      6  C   UNL     1     -32.091  -9.550  17.318  0.00  0.00    +0.022 C 
ENDROOT
BRANCH   1   7
ATOM      7  C   UNL     1     -34.312  -8.565  16.548  0.00  0.00    +0.203 C 
BRANCH   7   9
ATOM      8  N   UNL     1     -34.507  -6.615  14.915  0.00  0.00    -0.327 N 
ATOM      9  C   UNL     1     -34.594  -8.017  15.172  0.00  0.00    +0.239 C 
ATOM     10  O   UNL     1     -34.890  -8.805  14.233  0.00  0.00    -0.273 OA
ATOM     11  H   UNL     1     -34.259  -5.946  15.678  0.00  0.00    +0.145 HD
ATOM     12  H   UNL     1     -34.692  -6.243  13.957  0.00  0.00    +0.145 HD
ENDBRANCH   7   9
BRANCH   7  13
ATOM     13  O   UNL     1     -33.734  -7.557  17.336  0.00  0.00    -0.382 OA
ATOM     14  H   UNL     1     -32.790  -7.465  17.040  0.00  0.00    +0.210 HD
ENDBRANCH   7  13
ENDBRANCH   1   7
BRANCH   4  15
ATOM     15  C   UNL     1     -30.892 -13.155  16.920  0.00  0.00    +0.119 C 
BRANCH  15  16
ATOM     16  C   UNL     1     -30.379 -13.673  15.602  0.00  0.00    -0.030 A 
ATOM     17  C   UNL     1     -29.186 -14.410  15.538  0.00  0.00    +0.008 A 
ATOM     18  C   UNL     1     -28.705 -14.865  14.307  0.00  0.00    +0.041 A 
ATOM     19  C   UNL     1     -29.409 -14.585  13.132  0.00  0.00    +0.158 A 
ATOM     20  F   UNL     1     -28.938 -15.028  11.939  0.00  0.00    -0.202 F 
ATOM     21  C   UNL     1     -30.595 -13.847  13.187  0.00  0.00    +0.159 A 
ATOM     22  F   UNL     1     -31.277 -13.569  12.048  0.00  0.00    -0.202 F 
ATOM     23  C   UNL     1     -31.078 -13.389  14.417  0.00  0.00    +0.046 A 
ENDBRANCH  15  16
ENDBRANCH   4  15
TORSDOF 5
ENDMDL
MODEL 6
REMARK VINA RESULT:    -4.257      2.075      2.480
REMARK INTER + INTRA:          -5.783
REMARK INTER:                  -5.401
REMARK INTRA:                  -0.382
REMARK UNBOUND:                -0.406
REMARK  Name = 
REMARK  5 active torsions:
REMARK  status: ('A' for Active; 'I' for Inactive)
REMARK    1  A    between atoms: C_2  and  C_4
REMARK    2  A    between atoms: C_4  and  O_5
REMARK    3  A    between atoms: C_4  and  C_6
REMARK    4  A    between atoms: N_9  and  C_10
REMARK    5  A    between atoms: C_10  and  C_11
REMARK                            x       y       z     vdW  Elec       q    Type
REMARK                         _______ _______ _______ _____ _____    ______ ____
ROOT
ATOM      1  C   UNL     1     -28.824 -12.786  20.957  0.00  0.00    +0.029 C 
ATOM      2  C   UNL     1     -29.218 -11.537  21.788  0.00  0.00    +0.022 C 
ATOM      3  C   UNL     1     -30.552 -10.916  21.331  0.00  0.00    +0.085 C 
ATOM      4  N   UNL     1     -30.824 -11.252  19.921  0.00  0.00    -0.298 NA
ATOM      5  C   UNL     1     -31.086 -12.707  19.776  0.00  0.00    +0.085 C 
ATOM      6  C   UNL     1     -30.092 -13.575  20.579  0.00  0.00    +0.022 C 
ENDROOT
BRANCH   1   7
ATOM      7  C   UNL     1     -27.811 -13.679  21.711  0.00  0.00    +0.203 C 
BRANCH   7   9
ATOM      8  N   UNL     1     -25.378 -14.409  21.462  0.00  0.00    -0.327 N 
ATOM      9  C   UNL     1     -26.596 -13.961  20.864  0.00  0.00    +0.239 C 
ATOM     10  O   UNL     1     -26.660 -13.821  19.613  0.00  0.00    -0.273 OA
ATOM     11  H   UNL     1     -25.306 -14.536  22.496  0.00  0.00    +0.145 HD
ATOM     12  H   UNL     1     -24.544 -14.614  20.868  0.00  0.00    +0.145 HD
ENDBRANCH   7   9
BRANCH   7  13
ATOM     13  O   UNL     1     -28.420 -14.896  22.062  0.00  0.00    -0.382 OA
ATOM     14  H   UNL     1     -27.707 -15.475  22.441  0.00  0.00    +0.210 HD
ENDBRANCH   7  13
ENDBRANCH   1   7
BRANCH   4  15
ATOM     15  C   UNL     1     -31.957 -10.454  19.408  0.00  0.00    +0.119 C 
BRANCH  15  16
ATOM     16  C   UNL     1     -32.126 -10.661  17.925  0.00  0.00    -0.030 A 
ATOM     17  C   UNL     1     -31.154 -10.197  17.023  0.00  0.00    +0.008 A 
ATOM     18  C   UNL     1     -31.331 -10.370  15.648  0.00  0.00    +0.041 A 
ATOM     19  C   UNL     1     -32.479 -11.004  15.162  0.00  0.00    +0.158 A 
ATOM     20  F   UNL     1     -32.646 -11.169  13.826  0.00  0.00    -0.202 F 
ATOM     21  C   UNL     1     -33.453 -11.463  16.054  0.00  0.00    +0.159 A 
ATOM     22  F   UNL     1     -34.570 -12.073  15.585  0.00  0.00    -0.202 F 
ATOM     23  C   UNL     1     -33.279 -11.290  17.431  0.00  0.00    +0.046 A 
ENDBRANCH  15  16
ENDBRANCH   4  15
TORSDOF 5
ENDMDL
MODEL 7
REMARK VINA RESULT:    -4.069      3.219      3.907
REMARK INTER + INTRA:          -5.545
REMARK INTER:                  -5.321
REMARK INTRA:                  -0.224
REMARK UNBOUND:                -0.406
REMARK  Name = 
REMARK  5 active torsions:
REMARK  status: ('A' for Active; 'I' for Inactive)
REMARK    1  A    between atoms: C_2  and  C_4
REMARK    2  A    between atoms: C_4  and  O_5
REMARK    3  A    between atoms: C_4  and  C_6
REMARK    4  A    between atoms: N_9  and  C_10
REMARK    5  A    between atoms: C_10  and  C_11
REMARK                            x       y       z     vdW  Elec       q    Type
REMARK                         _______ _______ _______ _____ _____    ______ ____
ROOT
ATOM      1  C   UNL     1     -28.498 -12.756  20.528  0.00  0.00    +0.029 C 
ATOM      2  C   UNL     1     -29.644 -13.429  19.730  0.00  0.00    +0.022 C 
ATOM      3  C   UNL     1     -29.855 -12.793  18.343  0.00  0.00    +0.085 C 
ATOM      4  N   UNL     1     -29.371 -11.400  18.332  0.00  0.00    -0.298 NA
ATOM      5  C   UNL     1     -27.894 -11.363  18.476  0.00  0.00    +0.085 C 
ATOM      6  C   UNL     1     -27.375 -12.332  19.562  0.00  0.00    +0.022 C 
ENDROOT
BRANCH   1   7
ATOM      7  C   UNL     1     -27.957 -13.680  21.645  0.00  0.00    +0.203 C 
BRANCH   7   9
ATOM      8  N   UNL     1     -26.410 -15.062  20.159  0.00  0.00    -0.327 N 
ATOM      9  C   UNL     1     -26.591 -14.216  21.296  0.00  0.00    +0.239 C 
ATOM     10  O   UNL     1     -25.595 -13.898  22.000  0.00  0.00    -0.273 OA
ATOM     11  H   UNL     1     -27.221 -15.334  19.560  0.00  0.00    +0.145 HD
ATOM     12  H   UNL     1     -25.459 -15.420  19.916  0.00  0.00    +0.145 HD
ENDBRANCH   7   9
BRANCH   7  13
ATOM     13  O   UNL     1     -28.838 -14.757  21.839  0.00  0.00    -0.382 OA
ATOM     14  H   UNL     1     -29.001 -14.823  22.816  0.00  0.00    +0.210 HD
ENDBRANCH   7  13
ENDBRANCH   1   7
BRANCH   4  15
ATOM     15  C   UNL     1     -29.803 -10.712  17.097  0.00  0.00    +0.119 C 
BRANCH  15  16
ATOM     16  C   UNL     1     -31.082  -9.952  17.331  0.00  0.00    -0.030 A 
ATOM     17  C   UNL     1     -32.096  -9.940  16.359  0.00  0.00    +0.008 A 
ATOM     18  C   UNL     1     -33.269  -9.211  16.574  0.00  0.00    +0.041 A 
ATOM     19  C   UNL     1     -33.438  -8.487  17.758  0.00  0.00    +0.158 A 
ATOM     20  F   UNL     1     -34.578  -7.780  17.962  0.00  0.00    -0.202 F 
ATOM     21  C   UNL     1     -32.431  -8.489  18.728  0.00  0.00    +0.159 A 
ATOM     22  F   UNL     1     -32.590  -7.783  19.875  0.00  0.00    -0.202 F 
ATOM     23  C   UNL     1     -31.255  -9.217  18.515  0.00  0.00    +0.046 A 
ENDBRANCH  15  16
ENDBRANCH   4  15
TORSDOF 5
ENDMDL
MODEL 8
REMARK VINA RESULT:    -4.058      2.892      3.672
REMARK INTER + INTRA:          -5.533
REMARK INTER:                  -4.919
REMARK INTRA:                  -0.613
REMARK UNBOUND:                -0.406
REMARK  Name = 
REMARK  5 active torsions:
REMARK  status: ('A' for Active; 'I' for Inactive)
REMARK    1  A    between atoms: C_2  and  C_4
REMARK    2  A    between atoms: C_4  and  O_5
REMARK    3  A    between atoms: C_4  and  C_6
REMARK    4  A    between atoms: N_9  and  C_10
REMARK    5  A    between atoms: C_10  and  C_11
REMARK                            x       y       z     vdW  Elec       q    Type
REMARK                         _______ _______ _______ _____ _____    ______ ____
ROOT
ATOM      1  C   UNL     1     -30.081 -11.529  19.362  0.00  0.00    +0.029 C 
ATOM      2  C   UNL     1     -30.176 -10.071  18.845  0.00  0.00    +0.022 C 
ATOM      3  C   UNL     1     -31.630  -9.580  18.714  0.00  0.00    +0.085 C 
ATOM      4  N   UNL     1     -32.549 -10.720  18.536  0.00  0.00    -0.298 NA
ATOM      5  C   UNL     1     -32.601 -11.542  19.772  0.00  0.00    +0.085 C 
ATOM      6  C   UNL     1     -31.203 -11.788  20.385  0.00  0.00    +0.022 C 
ENDROOT
BRANCH   1   7
ATOM      7  C   UNL     1     -28.690 -11.833  19.968  0.00  0.00    +0.203 C 
BRANCH   7   9
ATOM      8  N   UNL     1     -28.256 -14.345  20.078  0.00  0.00    -0.327 N 
ATOM      9  C   UNL     1     -28.109 -13.100  19.393  0.00  0.00    +0.239 C 
ATOM     10  O   UNL     1     -27.507 -13.066  18.286  0.00  0.00    -0.273 OA
ATOM     11  H   UNL     1     -28.756 -14.395  20.993  0.00  0.00    +0.145 HD
ATOM     12  H   UNL     1     -27.862 -15.221  19.668  0.00  0.00    +0.145 HD
ENDBRANCH   7   9
BRANCH   7  13
ATOM     13  O   UNL     1     -28.798 -11.967  21.362  0.00  0.00    -0.382 OA
ATOM     14  H   UNL     1     -29.691 -12.362  21.545  0.00  0.00    +0.210 HD
ENDBRANCH   7  13
ENDBRANCH   1   7
BRANCH   4  15
ATOM     15  C   UNL     1     -33.895 -10.246  18.156  0.00  0.00    +0.119 C 
BRANCH  15  16
ATOM     16  C   UNL     1     -34.110 -10.388  16.671  0.00  0.00    -0.030 A 
ATOM     17  C   UNL     1     -34.017 -11.645  16.052  0.00  0.00    +0.008 A 
ATOM     18  C   UNL     1     -34.192 -11.765  14.671  0.00  0.00    +0.041 A 
ATOM     19  C   UNL     1     -34.459 -10.631  13.897  0.00  0.00    +0.158 A 
ATOM     20  F   UNL     1     -34.627 -10.751  12.557  0.00  0.00    -0.202 F 
ATOM     21  C   UNL     1     -34.547  -9.375  14.505  0.00  0.00    +0.159 A 
ATOM     22  F   UNL     1     -34.800  -8.273  13.757  0.00  0.00    -0.202 F 
ATOM     23  C   UNL     1     -34.371  -9.253  15.888  0.00  0.00    +0.046 A 
ENDBRANCH  15  16
ENDBRANCH   4  15
TORSDOF 5
ENDMDL
