MODEL 1
REMARK VINA RESULT:    -5.794      0.000      0.000
REMARK INTER + INTRA:          -9.385
REMARK INTER:                  -8.334
REMARK INTRA:                  -1.051
REMARK UNBOUND:                -1.051
REMARK  Name = 
REMARK  11 active torsions:
REMARK  status: ('A' for Active; 'I' for Inactive)
REMARK    1  A    between atoms: C_1  and  O_2
REMARK    2  A    between atoms: O_2  and  C_3
REMARK    3  A    between atoms: C_8  and  C_9
REMARK    4  A    between atoms: C_9  and  C_10
REMARK    5  A    between atoms: C_9  and  N_11
REMARK    6  A    between atoms: C_12  and  C_14
REMARK    7  A    between atoms: C_14  and  C_15
REMARK    8  A    between atoms: C_15  and  C_16
REMARK    9  A    between atoms: C_15  and  C_17
REMARK   10  A    between atoms: C_15  and  C_20
REMARK   11  A    between atoms: C_17  and  O_19
REMARK                            x       y       z     vdW  Elec       q    Type
REMARK                         _______ _______ _______ _____ _____    ______ ____
ROOT
ATOM      1  N   UNL     1     -30.545 -13.610  16.205  0.00  0.00    -0.309 N 
ATOM      2  C   UNL     1     -29.516 -13.593  17.207  0.00  0.00    +0.215 C 
ATOM      3  O   UNL     1     -28.309 -13.761  16.884  0.00  0.00    -0.276 OA
ATOM      4  H   UNL     1     -31.541 -13.566  16.520  0.00  0.00    +0.149 HD
ENDROOT
BRANCH   1   5
ATOM      5  C   UNL     1     -30.244 -13.572  14.771  0.00  0.00    +0.104 C 
ATOM      6  C   UNL     1     -29.817 -14.961  14.276  0.00  0.00    +0.033 C 
BRANCH   5  12
ATOM      7  C   UNL     1     -32.249 -12.003  14.545  0.00  0.00    +0.125 A 
ATOM      8  C   UNL     1     -33.373 -11.550  13.824  0.00  0.00    +0.046 A 
ATOM      9  C   UNL     1     -33.708 -12.128  12.597  0.00  0.00    +0.004 A 
ATOM     10  C   UNL     1     -32.934 -13.162  12.078  0.00  0.00    +0.001 A 
ATOM     11  C   UNL     1     -31.815 -13.618  12.774  0.00  0.00    +0.009 A 
ATOM     12  C   UNL     1     -31.441 -13.031  14.002  0.00  0.00    +0.014 A 
BRANCH   7  14
ATOM     13  C   UNL     1     -31.378 -10.154  16.001  0.00  0.00    +0.277 C 
ATOM     14  O   UNL     1     -31.915 -11.458  15.798  0.00  0.00    -0.495 OA
ENDBRANCH   7  14
ENDBRANCH   5  12
ENDBRANCH   1   5
BRANCH   2  15
ATOM     15  C   UNL     1     -29.868 -13.346  18.652  0.00  0.00    +0.118 C 
BRANCH  15  16
ATOM     16  C   UNL     1     -28.880 -12.380  19.382  0.00  0.00    +0.098 C 
ATOM     17  C   UNL     1     -28.180 -11.481  18.333  0.00  0.00    +0.028 C 
BRANCH  16  18
ATOM     18  C   UNL     1     -27.777 -13.130  20.159  0.00  0.00    -0.030 A 
ATOM     19  C   UNL     1     -26.409 -13.078  19.798  0.00  0.00    +0.005 A 
ATOM     20  C   UNL     1     -25.443 -13.761  20.545  0.00  0.00    +0.000 A 
ATOM     21  C   UNL     1     -25.816 -14.491  21.673  0.00  0.00    +0.000 A 
ATOM     22  C   UNL     1     -27.153 -14.536  22.062  0.00  0.00    +0.000 A 
ATOM     23  C   UNL     1     -28.124 -13.862  21.318  0.00  0.00    +0.005 A 
ENDBRANCH  16  18
BRANCH  16  24
ATOM     24  C   UNL     1     -29.677 -11.532  20.364  0.00  0.00    +0.316 C 
ATOM     25  O   UNL     1     -30.885 -11.811  20.603  0.00  0.00    -0.250 OA
BRANCH  24  26
ATOM     26  O   UNL     1     -29.106 -10.413  20.967  0.00  0.00    -0.480 OA
ATOM     27  H   UNL     1     -29.181 -10.267  21.967  0.00  0.00    +0.295 HD
ENDBRANCH  24  26
ENDBRANCH  16  24
ENDBRANCH  15  16
ENDBRANCH   2  15
TORSDOF 8
ENDMDL
MODEL 2
REMARK VINA RESULT:    -5.525      1.319      2.848
REMARK INTER + INTRA:          -8.999
REMARK INTER:                  -7.956
REMARK INTRA:                  -1.043
REMARK UNBOUND:                -1.051
REMARK  Name = 
REMARK  11 active torsions:
REMARK  status: ('A' for Active; 'I' for Inactive)
REMARK    1  A    between atoms: C_1  and  O_2
REMARK    2  A    between atoms: O_2  and  C_3
REMARK    3  A    between atoms: C_8  and  C_9
REMARK    4  A    between atoms: C_9  and  C_10
REMARK    5  A    between atoms: C_9  and  N_11
REMARK    6  A    between atoms: C_12  and  C_14
REMARK    7  A    between atoms: C_14  and  C_15
REMARK    8  A    between atoms: C_15  and  C_16
REMARK    9  A    between atoms: C_15  and  C_17
REMARK   10  A    between atoms: C_15  and  C_20
REMARK   11  A    between atoms: C_17  and  O_19
REMARK                            x       y       z     vdW  Elec       q    Type
REMARK                         _______ _______ _______ _____ _____    ______ ____
ROOT
ATOM      1  N   UNL     1     -30.287 -11.674  16.756  0.00  0.00    -0.309 N 
ATOM      2  C   UNL     1     -29.780 -10.912  17.863  0.00  0.00    +0.215 C 
ATOM      3  O   UNL     1     -30.336  -9.833  18.202  0.00  0.00    -0.276 OA
ATOM      4  H   UNL     1     -29.744 -12.510  16.441  0.00  0.00    +0.149 HD
ENDROOT
BRANCH   1   5
ATOM      5  C   UNL     1     -31.585 -11.388  16.137  0.00  0.00    +0.104 C 
ATOM      6  C   UNL     1     -31.759  -9.876  15.932  0.00  0.00    +0.033 C 
BRANCH   5  12
ATOM      7  C   UNL     1     -30.899 -13.284  14.566  0.00  0.00    +0.125 A 
ATOM      8  C   UNL     1     -31.025 -13.958  13.334  0.00  0.00    +0.046 A 
ATOM      9  C   UNL     1     -31.934 -13.512  12.372  0.00  0.00    +0.004 A 
ATOM     10  C   UNL     1     -32.722 -12.391  12.622  0.00  0.00    +0.001 A 
ATOM     11  C   UNL     1     -32.614 -11.715  13.836  0.00  0.00    +0.009 A 
ATOM     12  C   UNL     1     -31.723 -12.164  14.834  0.00  0.00    +0.014 A 
BRANCH   7  14
ATOM     13  C   UNL     1     -28.931 -14.650  15.312  0.00  0.00    +0.277 C 
ATOM     14  O   UNL     1     -29.965 -13.696  15.534  0.00  0.00    -0.495 OA
ENDBRANCH   7  14
ENDBRANCH   5  12
ENDBRANCH   1   5
BRANCH   2  15
ATOM     15  C   UNL     1     -28.592 -11.410  18.645  0.00  0.00    +0.118 C 
BRANCH  15  16
ATOM     16  C   UNL     1     -28.978 -12.263  19.897  0.00  0.00    +0.098 C 
ATOM     17  C   UNL     1     -29.494 -11.322  21.013  0.00  0.00    +0.028 C 
BRANCH  16  18
ATOM     18  C   UNL     1     -27.784 -13.054  20.472  0.00  0.00    -0.030 A 
ATOM     19  C   UNL     1     -27.897 -13.915  21.590  0.00  0.00    +0.005 A 
ATOM     20  C   UNL     1     -26.788 -14.626  22.062  0.00  0.00    +0.000 A 
ATOM     21  C   UNL     1     -25.554 -14.508  21.423  0.00  0.00    +0.000 A 
ATOM     22  C   UNL     1     -25.425 -13.685  20.306  0.00  0.00    +0.000 A 
ATOM     23  C   UNL     1     -26.526 -12.969  19.831  0.00  0.00    +0.005 A 
ENDBRANCH  16  18
BRANCH  16  24
ATOM     24  C   UNL     1     -30.064 -13.249  19.488  0.00  0.00    +0.316 C 
ATOM     25  O   UNL     1     -31.185 -13.230  20.069  0.00  0.00    -0.250 OA
BRANCH  24  26
ATOM     26  O   UNL     1     -29.821 -14.214  18.512  0.00  0.00    -0.480 OA
ATOM     27  H   UNL     1     -28.914 -14.659  18.437  0.00  0.00    +0.295 HD
ENDBRANCH  24  26
ENDBRANCH  16  24
ENDBRANCH  15  16
ENDBRANCH   2  15
TORSDOF 8
ENDMDL
MODEL 3
REMARK VINA RESULT:    -5.393      2.488      6.793
REMARK INTER + INTRA:          -8.809
REMARK INTER:                  -5.777
REMARK INTRA:                  -3.031
REMARK UNBOUND:                -1.051
REMARK  Name = 
REMARK  11 active torsions:
REMARK  status: ('A' for Active; 'I' for Inactive)
REMARK    1  A    between atoms: C_1  and  O_2
REMARK    2  A    between atoms: O_2  and  C_3
REMARK    3  A    between atoms: C_8  and  C_9
REMARK    4  A    between atoms: C_9  and  C_10
REMARK    5  A    between atoms: C_9  and  N_11
REMARK    6  A    between atoms: C_12  and  C_14
REMARK    7  A    between atoms: C_14  and  C_15
REMARK    8  A    between atoms: C_15  and  C_16
REMARK    9  A    between atoms: C_15  and  C_17
REMARK   10  A    between atoms: C_15  and  C_20
REMARK   11  A    between atoms: C_17  and  O_19
REMARK                            x       y       z     vdW  Elec       q    Type
REMARK                         _______ _______ _______ _____ _____    ______ ____
ROOT
ATOM      1  N   UNL     1     -31.616  -9.128  18.012  0.00  0.00    -0.309 N 
ATOM      2  C   UNL     1     -31.314  -9.518  16.663  0.00  0.00    +0.215 C 
ATOM      3  O   UNL     1     -30.120  -9.712  16.307  0.00  0.00    -0.276 OA
ATOM      4  H   UNL     1     -32.605  -8.881  18.245  0.00  0.00    +0.149 HD
ENDROOT
BRANCH   1   5
ATOM      5  C   UNL     1     -30.617  -9.175  19.083  0.00  0.00    +0.104 C 
ATOM      6  C   UNL     1     -30.988  -8.197  20.206  0.00  0.00    +0.033 C 
BRANCH   5  12
ATOM      7  C   UNL     1     -29.280 -11.338  19.350  0.00  0.00    +0.125 A 
ATOM      8  C   UNL     1     -29.187 -12.671  19.801  0.00  0.00    +0.046 A 
ATOM      9  C   UNL     1     -30.263 -13.275  20.456  0.00  0.00    +0.004 A 
ATOM     10  C   UNL     1     -31.442 -12.563  20.664  0.00  0.00    +0.001 A 
ATOM     11  C   UNL     1     -31.550 -11.242  20.231  0.00  0.00    +0.009 A 
ATOM     12  C   UNL     1     -30.466 -10.603  19.592  0.00  0.00    +0.014 A 
BRANCH   7  14
ATOM     13  C   UNL     1     -27.085 -11.407  18.137  0.00  0.00    +0.277 C 
ATOM     14  O   UNL     1     -28.221 -10.724  18.658  0.00  0.00    -0.495 OA
ENDBRANCH   7  14
ENDBRANCH   5  12
ENDBRANCH   1   5
BRANCH   2  15
ATOM     15  C   UNL     1     -32.425  -9.726  15.666  0.00  0.00    +0.118 C 
BRANCH  15  16
ATOM     16  C   UNL     1     -33.141 -11.109  15.805  0.00  0.00    +0.098 C 
ATOM     17  C   UNL     1     -33.930 -11.142  17.136  0.00  0.00    +0.028 C 
BRANCH  16  18
ATOM     18  C   UNL     1     -32.152 -12.294  15.822  0.00  0.00    -0.030 A 
ATOM     19  C   UNL     1     -32.072 -13.215  16.894  0.00  0.00    +0.005 A 
ATOM     20  C   UNL     1     -31.171 -14.284  16.855  0.00  0.00    +0.000 A 
ATOM     21  C   UNL     1     -30.347 -14.468  15.745  0.00  0.00    +0.000 A 
ATOM     22  C   UNL     1     -30.425 -13.588  14.667  0.00  0.00    +0.000 A 
ATOM     23  C   UNL     1     -31.319 -12.515  14.700  0.00  0.00    +0.005 A 
ENDBRANCH  16  18
BRANCH  16  24
ATOM     24  C   UNL     1     -34.085 -11.280  14.622  0.00  0.00    +0.316 C 
ATOM     25  O   UNL     1     -34.642 -12.394  14.415  0.00  0.00    -0.250 OA
BRANCH  24  26
ATOM     26  O   UNL     1     -34.305 -10.234  13.728  0.00  0.00    -0.480 OA
ATOM     27  H   UNL     1     -33.606  -9.514  13.590  0.00  0.00    +0.295 HD
ENDBRANCH  24  26
ENDBRANCH  16  24
ENDBRANCH  15  16
ENDBRANCH   2  15
TORSDOF 8
ENDMDL
MODEL 4
REMARK VINA RESULT:    -5.341      2.483      6.773
REMARK INTER + INTRA:          -8.733
REMARK INTER:                  -5.769
REMARK INTRA:                  -2.965
REMARK UNBOUND:                -1.051
REMARK  Name = 
REMARK  11 active torsions:
REMARK  status: ('A' for Active; 'I' for Inactive)
REMARK    1  A    between atoms: C_1  and  O_2
REMARK    2  A    between atoms: O_2  and  C_3
REMARK    3  A    between atoms: C_8  and  C_9
REMARK    4  A    between atoms: C_9  and  C_10
REMARK    5  A    between atoms: C_9  and  N_11
REMARK    6  A    between atoms: C_12  and  C_14
REMARK    7  A    between atoms: C_14  and  C_15
REMARK    8  A    between atoms: C_15  and  C_16
REMARK    9  A    between atoms: C_15  and  C_17
REMARK   10  A    between atoms: C_15  and  C_20
REMARK   11  A    between atoms: C_17  and  O_19
REMARK                            x       y       z     vdW  Elec       q    Type
REMARK                         _______ _______ _______ _____ _____    ______ ____
ROOT
ATOM      1  N   UNL     1     -31.511  -9.207  18.055  0.00  0.00    -0.309 N 
ATOM      2  C   UNL     1     -31.281  -9.547  16.679  0.00  0.00    +0.215 C 
ATOM      3  O   UNL     1     -30.107  -9.711  16.250  0.00  0.00    -0.276 OA
ATOM      4  H   UNL     1     -32.488  -8.982  18.352  0.00  0.00    +0.149 HD
ENDROOT
BRANCH   1   5
ATOM      5  C   UNL     1     -30.452  -9.275  19.066  0.00  0.00    +0.104 C 
ATOM      6  C   UNL     1     -30.771  -8.341  20.241  0.00  0.00    +0.033 C 
BRANCH   5  12
ATOM      7  C   UNL     1     -31.311 -11.439  20.121  0.00  0.00    +0.125 A 
ATOM      8  C   UNL     1     -31.085 -12.760  20.561  0.00  0.00    +0.046 A 
ATOM      9  C   UNL     1     -29.823 -13.344  20.431  0.00  0.00    +0.004 A 
ATOM     10  C   UNL     1     -28.774 -12.623  19.867  0.00  0.00    +0.001 A 
ATOM     11  C   UNL     1     -28.981 -11.318  19.420  0.00  0.00    +0.009 A 
ATOM     12  C   UNL     1     -30.254 -10.717  19.516  0.00  0.00    +0.014 A 
BRANCH   7  14
ATOM     13  C   UNL     1     -33.387 -10.926  21.434  0.00  0.00    +0.277 C 
ATOM     14  O   UNL     1     -32.565 -10.821  20.275  0.00  0.00    -0.495 OA
ENDBRANCH   7  14
ENDBRANCH   5  12
ENDBRANCH   1   5
BRANCH   2  15
ATOM     15  C   UNL     1     -32.445  -9.738  15.740  0.00  0.00    +0.118 C 
BRANCH  15  16
ATOM     16  C   UNL     1     -33.130 -11.138  15.867  0.00  0.00    +0.098 C 
ATOM     17  C   UNL     1     -33.905 -11.205  17.206  0.00  0.00    +0.028 C 
BRANCH  16  18
ATOM     18  C   UNL     1     -32.115 -12.301  15.859  0.00  0.00    -0.030 A 
ATOM     19  C   UNL     1     -31.986 -13.218  16.930  0.00  0.00    +0.005 A 
ATOM     20  C   UNL     1     -31.064 -14.268  16.868  0.00  0.00    +0.000 A 
ATOM     21  C   UNL     1     -30.267 -14.437  15.735  0.00  0.00    +0.000 A 
ATOM     22  C   UNL     1     -30.395 -13.561  14.658  0.00  0.00    +0.000 A 
ATOM     23  C   UNL     1     -31.310 -12.507  14.715  0.00  0.00    +0.005 A 
ENDBRANCH  16  18
BRANCH  16  24
ATOM     24  C   UNL     1     -34.082 -11.313  14.691  0.00  0.00    +0.316 C 
ATOM     25  O   UNL     1     -34.653 -12.423  14.502  0.00  0.00    -0.250 OA
BRANCH  24  26
ATOM     26  O   UNL     1     -34.293 -10.276  13.784  0.00  0.00    -0.480 OA
ATOM     27  H   UNL     1     -34.448  -9.329  14.106  0.00  0.00    +0.295 HD
ENDBRANCH  24  26
ENDBRANCH  16  24
ENDBRANCH  15  16
ENDBRANCH   2  15
TORSDOF 8
ENDMDL
MODEL 5
REMARK VINA RESULT:    -5.296      3.354      6.848
REMARK INTER + INTRA:          -8.669
REMARK INTER:                  -6.529
REMARK INTRA:                  -2.139
REMARK UNBOUND:                -1.051
REMARK  Name = 
REMARK  11 active torsions:
REMARK  status: ('A' for Active; 'I' for Inactive)
REMARK    1  A    between atoms: C_1  and  O_2
REMARK    2  A    between atoms: O_2  and  C_3
REMARK    3  A    between atoms: C_8  and  C_9
REMARK    4  A    between atoms: C_9  and  C_10
REMARK    5  A    between atoms: C_9  and  N_11
REMARK    6  A    between atoms: C_12  and  C_14
REMARK    7  A    between atoms: C_14  and  C_15
REMARK    8  A    between atoms: C_15  and  C_16
REMARK    9  A    between atoms: C_15  and  C_17
REMARK   10  A    between atoms: C_15  and  C_20
REMARK   11  A    between atoms: C_17  and  O_19
REMARK                            x       y       z     vdW  Elec       q    Type
REMARK                         _______ _______ _______ _____ _____    ______ ____
ROOT
ATOM      1  N   UNL     1     -32.743  -9.540  17.314  0.00  0.00    -0.309 N 
ATOM      2  C   UNL     1     -31.597  -9.781  16.483  0.00  0.00    +0.215 C 
ATOM      3  O   UNL     1     -30.557  -9.079  16.613  0.00  0.00    -0.276 OA
ATOM      4  H   UNL     1     -33.619 -10.074  17.112  0.00  0.00    +0.149 HD
ENDROOT
BRANCH   1   5
ATOM      5  C   UNL     1     -32.690  -8.667  18.490  0.00  0.00    +0.104 C 
ATOM      6  C   UNL     1     -34.076  -8.079  18.785  0.00  0.00    +0.033 C 
BRANCH   5  12
ATOM      7  C   UNL     1     -31.051  -8.903  20.437  0.00  0.00    +0.125 A 
ATOM      8  C   UNL     1     -30.525  -9.652  21.510  0.00  0.00    +0.046 A 
ATOM      9  C   UNL     1     -31.037 -10.917  21.809  0.00  0.00    +0.004 A 
ATOM     10  C   UNL     1     -32.071 -11.451  21.044  0.00  0.00    +0.001 A 
ATOM     11  C   UNL     1     -32.607 -10.722  19.984  0.00  0.00    +0.009 A 
ATOM     12  C   UNL     1     -32.125  -9.431  19.680  0.00  0.00    +0.014 A 
BRANCH   7  14
ATOM     13  C   UNL     1     -30.532  -6.503  20.952  0.00  0.00    +0.277 C 
ATOM     14  O   UNL     1     -30.526  -7.643  20.099  0.00  0.00    -0.495 OA
ENDBRANCH   7  14
ENDBRANCH   5  12
ENDBRANCH   1   5
BRANCH   2  15
ATOM     15  C   UNL     1     -31.616 -10.893  15.466  0.00  0.00    +0.118 C 
BRANCH  15  16
ATOM     16  C   UNL     1     -31.253 -12.293  16.060  0.00  0.00    +0.098 C 
ATOM     17  C   UNL     1     -30.154 -12.118  17.136  0.00  0.00    +0.028 C 
BRANCH  16  18
ATOM     18  C   UNL     1     -30.710 -13.270  14.996  0.00  0.00    -0.030 A 
ATOM     19  C   UNL     1     -31.158 -13.272  13.653  0.00  0.00    +0.005 A 
ATOM     20  C   UNL     1     -30.621 -14.166  12.720  0.00  0.00    +0.000 A 
ATOM     21  C   UNL     1     -29.619 -15.060  13.099  0.00  0.00    +0.000 A 
ATOM     22  C   UNL     1     -29.146 -15.059  14.410  0.00  0.00    +0.000 A 
ATOM     23  C   UNL     1     -29.680 -14.173  15.349  0.00  0.00    +0.005 A 
ENDBRANCH  16  18
BRANCH  16  24
ATOM     24  C   UNL     1     -32.511 -12.892  16.676  0.00  0.00    +0.316 C 
ATOM     25  O   UNL     1     -33.629 -12.332  16.498  0.00  0.00    -0.250 OA
BRANCH  24  26
ATOM     26  O   UNL     1     -32.440 -14.026  17.482  0.00  0.00    -0.480 OA
ATOM     27  H   UNL     1     -32.550 -14.952  17.085  0.00  0.00    +0.295 HD
ENDBRANCH  24  26
ENDBRANCH  16  24
ENDBRANCH  15  16
ENDBRANCH   2  15
TORSDOF 8
ENDMDL
MODEL 6
REMARK VINA RESULT:    -5.266      2.963      5.801
REMARK INTER + INTRA:          -8.627
REMARK INTER:                  -5.546
REMARK INTRA:                  -3.081
REMARK UNBOUND:                -1.051
REMARK  Name = 
REMARK  11 active torsions:
REMARK  status: ('A' for Active; 'I' for Inactive)
REMARK    1  A    between atoms: C_1  and  O_2
REMARK    2  A    between atoms: O_2  and  C_3
REMARK    3  A    between atoms: C_8  and  C_9
REMARK    4  A    between atoms: C_9  and  C_10
REMARK    5  A    between atoms: C_9  and  N_11
REMARK    6  A    between atoms: C_12  and  C_14
REMARK    7  A    between atoms: C_14  and  C_15
REMARK    8  A    between atoms: C_15  and  C_16
REMARK    9  A    between atoms: C_15  and  C_17
REMARK   10  A    between atoms: C_15  and  C_20
REMARK   11  A    between atoms: C_17  and  O_19
REMARK                            x       y       z     vdW  Elec       q    Type
REMARK                         _______ _______ _______ _____ _____    ______ ____
ROOT
ATOM      1  N   UNL     1     -31.705 -10.763  20.286  0.00  0.00    -0.309 N 
ATOM      2  C   UNL     1     -30.830 -11.888  20.110  0.00  0.00    +0.215 C 
ATOM      3  O   UNL     1     -31.293 -13.061  20.107  0.00  0.00    -0.276 OA
ATOM      4  H   UNL     1     -31.276  -9.814  20.382  0.00  0.00    +0.149 HD
ENDROOT
BRANCH   1   5
ATOM      5  C   UNL     1     -33.164 -10.887  20.222  0.00  0.00    +0.104 C 
ATOM      6  C   UNL     1     -33.790 -10.566  21.587  0.00  0.00    +0.033 C 
BRANCH   5  12
ATOM      7  C   UNL     1     -33.511  -8.597  19.141  0.00  0.00    +0.125 A 
ATOM      8  C   UNL     1     -34.066  -7.797  18.121  0.00  0.00    +0.046 A 
ATOM      9  C   UNL     1     -34.834  -8.373  17.107  0.00  0.00    +0.004 A 
ATOM     10  C   UNL     1     -35.062  -9.747  17.098  0.00  0.00    +0.001 A 
ATOM     11  C   UNL     1     -34.516 -10.554  18.096  0.00  0.00    +0.009 A 
ATOM     12  C   UNL     1     -33.714  -9.998  19.115  0.00  0.00    +0.014 A 
BRANCH   7  14
ATOM     13  C   UNL     1     -31.620  -7.200  20.018  0.00  0.00    +0.277 C 
ATOM     14  O   UNL     1     -32.765  -8.031  20.190  0.00  0.00    -0.495 OA
ENDBRANCH   7  14
ENDBRANCH   5  12
ENDBRANCH   1   5
BRANCH   2  15
ATOM     15  C   UNL     1     -29.353 -11.675  19.899  0.00  0.00    +0.118 C 
BRANCH  15  16
ATOM     16  C   UNL     1     -28.898 -11.864  18.416  0.00  0.00    +0.098 C 
ATOM     17  C   UNL     1     -27.577 -11.088  18.188  0.00  0.00    +0.028 C 
BRANCH  16  18
ATOM     18  C   UNL     1     -29.931 -11.329  17.402  0.00  0.00    -0.030 A 
ATOM     19  C   UNL     1     -30.103  -9.950  17.132  0.00  0.00    +0.005 A 
ATOM     20  C   UNL     1     -31.041  -9.515  16.190  0.00  0.00    +0.000 A 
ATOM     21  C   UNL     1     -31.811 -10.441  15.486  0.00  0.00    +0.000 A 
ATOM     22  C   UNL     1     -31.641 -11.805  15.717  0.00  0.00    +0.000 A 
ATOM     23  C   UNL     1     -30.710 -12.247  16.660  0.00  0.00    +0.005 A 
ENDBRANCH  16  18
BRANCH  16  24
ATOM     24  C   UNL     1     -28.692 -13.351  18.163  0.00  0.00    +0.316 C 
ATOM     25  O   UNL     1     -28.130 -13.740  17.101  0.00  0.00    -0.250 OA
BRANCH  24  26
ATOM     26  O   UNL     1     -29.163 -14.300  19.068  0.00  0.00    -0.480 OA
ATOM     27  H   UNL     1     -29.943 -14.091  19.680  0.00  0.00    +0.295 HD
ENDBRANCH  24  26
ENDBRANCH  16  24
ENDBRANCH  15  16
ENDBRANCH   2  15
TORSDOF 8
ENDMDL
MODEL 7
REMARK VINA RESULT:    -5.168      1.909      3.803
REMARK INTER + INTRA:          -8.485
REMARK INTER:                  -6.784
REMARK INTRA:                  -1.701
REMARK UNBOUND:                -1.051
REMARK  Name = 
REMARK  11 active torsions:
REMARK  status: ('A' for Active; 'I' for Inactive)
REMARK    1  A    between atoms: C_1  and  O_2
REMARK    2  A    between atoms: O_2  and  C_3
REMARK    3  A    between atoms: C_8  and  C_9
REMARK    4  A    between atoms: C_9  and  C_10
REMARK    5  A    between atoms: C_9  and  N_11
REMARK    6  A    between atoms: C_12  and  C_14
REMARK    7  A    between atoms: C_14  and  C_15
REMARK    8  A    between atoms: C_15  and  C_16
REMARK    9  A    between atoms: C_15  and  C_17
REMARK   10  A    between atoms: C_15  and  C_20
REMARK   11  A    between atoms: C_17  and  O_19
REMARK                            x       y       z     vdW  Elec       q    Type
REMARK                         _______ _______ _______ _____ _____    ______ ____
ROOT
ATOM      1  N   UNL     1     -31.818 -11.784  16.202  0.00  0.00    -0.309 N 
ATOM      2  C   UNL     1     -32.780 -11.338  17.171  0.00  0.00    +0.215 C 
ATOM      3  O   UNL     1     -34.015 -11.441  16.936  0.00  0.00    -0.276 OA
ATOM      4  H   UNL     1     -30.806 -11.594  16.387  0.00  0.00    +0.149 HD
ENDROOT
BRANCH   1   5
ATOM      5  C   UNL     1     -32.195 -12.587  15.035  0.00  0.00    +0.104 C 
ATOM      6  C   UNL     1     -32.715 -11.684  13.909  0.00  0.00    +0.033 C 
BRANCH   5  12
ATOM      7  C   UNL     1     -30.108 -13.977  15.534  0.00  0.00    +0.125 A 
ATOM      8  C   UNL     1     -29.004 -14.732  15.085  0.00  0.00    +0.046 A 
ATOM      9  C   UNL     1     -28.788 -14.928  13.719  0.00  0.00    +0.004 A 
ATOM     10  C   UNL     1     -29.662 -14.374  12.787  0.00  0.00    +0.001 A 
ATOM     11  C   UNL     1     -30.762 -13.630  13.213  0.00  0.00    +0.009 A 
ATOM     12  C   UNL     1     -31.015 -13.441  14.588  0.00  0.00    +0.014 A 
BRANCH   7  14
ATOM     13  C   UNL     1     -30.855 -14.690  17.821  0.00  0.00    +0.277 C 
ATOM     14  O   UNL     1     -30.323 -13.739  16.903  0.00  0.00    -0.495 OA
ENDBRANCH   7  14
ENDBRANCH   5  12
ENDBRANCH   1   5
BRANCH   2  15
ATOM     15  C   UNL     1     -32.322 -10.768  18.488  0.00  0.00    +0.118 C 
BRANCH  15  16
ATOM     16  C   UNL     1     -30.958 -10.010  18.404  0.00  0.00    +0.098 C 
ATOM     17  C   UNL     1     -30.716  -9.561  16.942  0.00  0.00    +0.028 C 
BRANCH  16  18
ATOM     18  C   UNL     1     -29.760 -10.888  18.823  0.00  0.00    -0.030 A 
ATOM     19  C   UNL     1     -29.796 -11.757  19.941  0.00  0.00    +0.005 A 
ATOM     20  C   UNL     1     -28.690 -12.548  20.270  0.00  0.00    +0.000 A 
ATOM     21  C   UNL     1     -27.537 -12.504  19.486  0.00  0.00    +0.000 A 
ATOM     22  C   UNL     1     -27.488 -11.675  18.367  0.00  0.00    +0.000 A 
ATOM     23  C   UNL     1     -28.586 -10.879  18.034  0.00  0.00    +0.005 A 
ENDBRANCH  16  18
BRANCH  16  24
ATOM     24  C   UNL     1     -31.023  -8.801  19.328  0.00  0.00    +0.316 C 
ATOM     25  O   UNL     1     -32.097  -8.144  19.432  0.00  0.00    -0.250 OA
BRANCH  24  26
ATOM     26  O   UNL     1     -29.895  -8.376  20.026  0.00  0.00    -0.480 OA
ATOM     27  H   UNL     1     -29.985  -7.807  20.860  0.00  0.00    +0.295 HD
ENDBRANCH  24  26
ENDBRANCH  16  24
ENDBRANCH  15  16
ENDBRANCH   2  15
TORSDOF 8
ENDMDL
MODEL 8
REMARK VINA RESULT:    -5.104      2.888      5.148
REMARK INTER + INTRA:          -8.393
REMARK INTER:                  -6.273
REMARK INTRA:                  -2.120
REMARK UNBOUND:                -1.051
REMARK  Name = 
REMARK  11 active torsions:
REMARK  status: ('A' for Active; 'I' for Inactive)
REMARK    1  A    between atoms: C_1  and  O_2
REMARK    2  A    between atoms: O_2  and  C_3
REMARK    3  A    between atoms: C_8  and  C_9
REMARK    4  A    between atoms: C_9  and  C_10
REMARK    5  A    between atoms: C_9  and  N_11
REMARK    6  A    between atoms: C_12  and  C_14
REMARK    7  A    between atoms: C_14  and  C_15
REMARK    8  A    between atoms: C_15  and  C_16
REMARK    9  A    between atoms: C_15  and  C_17
REMARK   10  A    between atoms: C_15  and  C_20
REMARK   11  A    between atoms: C_17  and  O_19
REMARK                            x       y       z     vdW  Elec       q    Type
REMARK                         _______ _______ _______ _____ _____    ______ ____
ROOT
ATOM      1  N   UNL     1     -30.374 -12.310  16.815  0.00  0.00    -0.309 N 
ATOM      2  C   UNL     1     -29.435 -11.701  17.716  0.00  0.00    +0.215 C 
ATOM      3  O   UNL     1     -28.395 -12.321  18.066  0.00  0.00    -0.276 OA
ATOM      4  H   UNL     1     -31.271 -11.808  16.624  0.00  0.00    +0.149 HD
ENDROOT
BRANCH   1   5
ATOM      5  C   UNL     1     -30.068 -13.538  16.077  0.00  0.00    +0.104 C 
ATOM      6  C   UNL     1     -30.462 -14.771  16.902  0.00  0.00    +0.033 C 
BRANCH   5  12
ATOM      7  C   UNL     1     -30.194 -14.192  13.609  0.00  0.00    +0.125 A 
ATOM      8  C   UNL     1     -30.834 -14.118  12.355  0.00  0.00    +0.046 A 
ATOM      9  C   UNL     1     -31.997 -13.361  12.196  0.00  0.00    +0.004 A 
ATOM     10  C   UNL     1     -32.531 -12.667  13.278  0.00  0.00    +0.001 A 
ATOM     11  C   UNL     1     -31.915 -12.733  14.527  0.00  0.00    +0.009 A 
ATOM     12  C   UNL     1     -30.755 -13.514  14.718  0.00  0.00    +0.014 A 
BRANCH   7  14
ATOM     13  C   UNL     1     -27.853 -14.809  12.948  0.00  0.00    +0.277 C 
ATOM     14  O   UNL     1     -29.003 -14.921  13.781  0.00  0.00    -0.495 OA
ENDBRANCH   7  14
ENDBRANCH   5  12
ENDBRANCH   1   5
BRANCH   2  15
ATOM     15  C   UNL     1     -29.672 -10.304  18.229  0.00  0.00    +0.118 C 
BRANCH  15  16
ATOM     16  C   UNL     1     -31.060 -10.118  18.923  0.00  0.00    +0.098 C 
ATOM     17  C   UNL     1     -31.283 -11.272  19.931  0.00  0.00    +0.028 C 
BRANCH  16  18
ATOM     18  C   UNL     1     -32.236 -10.142  17.923  0.00  0.00    -0.030 A 
ATOM     19  C   UNL     1     -33.424 -10.878  18.149  0.00  0.00    +0.005 A 
ATOM     20  C   UNL     1     -34.470 -10.853  17.220  0.00  0.00    +0.000 A 
ATOM     21  C   UNL     1     -34.362 -10.085  16.061  0.00  0.00    +0.000 A 
ATOM     22  C   UNL     1     -33.212  -9.333  15.830  0.00  0.00    +0.000 A 
ATOM     23  C   UNL     1     -32.161  -9.356  16.750  0.00  0.00    +0.005 A 
ENDBRANCH  16  18
BRANCH  16  24
ATOM     24  C   UNL     1     -31.060  -8.776  19.643  0.00  0.00    +0.316 C 
ATOM     25  O   UNL     1     -32.141  -8.140  19.793  0.00  0.00    -0.250 OA
BRANCH  24  26
ATOM     26  O   UNL     1     -29.870  -8.209  20.094  0.00  0.00    -0.480 OA
ATOM     27  H   UNL     1     -29.873  -7.514  20.831  0.00  0.00    +0.295 HD
ENDBRANCH  24  26
ENDBRANCH  16  24
ENDBRANCH  15  16
ENDBRANCH   2  15
TORSDOF 8
ENDMDL
MODEL 9
REMARK VINA RESULT:    -5.063      1.626      3.041
REMARK INTER + INTRA:          -8.333
REMARK INTER:                  -6.625
REMARK INTRA:                  -1.708
REMARK UNBOUND:                -1.051
REMARK  Name = 
REMARK  11 active torsions:
REMARK  status: ('A' for Active; 'I' for Inactive)
REMARK    1  A    between atoms: C_1  and  O_2
REMARK    2  A    between atoms: O_2  and  C_3
REMARK    3  A    between atoms: C_8  and  C_9
REMARK    4  A    between atoms: C_9  and  C_10
REMARK    5  A    between atoms: C_9  and  N_11
REMARK    6  A    between atoms: C_12  and  C_14
REMARK    7  A    between atoms: C_14  and  C_15
REMARK    8  A    between atoms: C_15  and  C_16
REMARK    9  A    between atoms: C_15  and  C_17
REMARK   10  A    between atoms: C_15  and  C_20
REMARK   11  A    between atoms: C_17  and  O_19
REMARK                            x       y       z     vdW  Elec       q    Type
REMARK                         _______ _______ _______ _____ _____    ______ ____
ROOT
ATOM      1  N   UNL     1     -30.613 -13.634  16.010  0.00  0.00    -0.309 N 
ATOM      2  C   UNL     1     -29.566 -13.726  16.989  0.00  0.00    +0.215 C 
ATOM      3  O   UNL     1     -28.367 -13.871  16.628  0.00  0.00    -0.276 OA
ATOM      4  H   UNL     1     -31.603 -13.614  16.346  0.00  0.00    +0.149 HD
ENDROOT
BRANCH   1   5
ATOM      5  C   UNL     1     -30.337 -13.454  14.582  0.00  0.00    +0.104 C 
ATOM      6  C   UNL     1     -29.734 -14.734  13.987  0.00  0.00    +0.033 C 
BRANCH   5  12
ATOM      7  C   UNL     1     -32.526 -12.139  14.466  0.00  0.00    +0.125 A 
ATOM      8  C   UNL     1     -33.710 -11.792  13.783  0.00  0.00    +0.046 A 
ATOM      9  C   UNL     1     -33.990 -12.336  12.527  0.00  0.00    +0.004 A 
ATOM     10  C   UNL     1     -33.100 -13.233  11.941  0.00  0.00    +0.001 A 
ATOM     11  C   UNL     1     -31.922 -13.584  12.599  0.00  0.00    +0.009 A 
ATOM     12  C   UNL     1     -31.605 -13.025  13.855  0.00  0.00    +0.014 A 
BRANCH   7  14
ATOM     13  C   UNL     1     -33.222 -11.316  16.731  0.00  0.00    +0.277 C 
ATOM     14  O   UNL     1     -32.243 -11.629  15.745  0.00  0.00    -0.495 OA
ENDBRANCH   7  14
ENDBRANCH   5  12
ENDBRANCH   1   5
BRANCH   2  15
ATOM     15  C   UNL     1     -29.890 -13.624  18.457  0.00  0.00    +0.118 C 
BRANCH  15  16
ATOM     16  C   UNL     1     -29.304 -12.346  19.141  0.00  0.00    +0.098 C 
ATOM     17  C   UNL     1     -28.007 -12.724  19.897  0.00  0.00    +0.028 C 
BRANCH  16  18
ATOM     18  C   UNL     1     -30.274 -11.721  20.166  0.00  0.00    -0.030 A 
ATOM     19  C   UNL     1     -29.876 -10.733  21.099  0.00  0.00    +0.005 A 
ATOM     20  C   UNL     1     -30.798 -10.182  21.997  0.00  0.00    +0.000 A 
ATOM     21  C   UNL     1     -32.132 -10.589  21.972  0.00  0.00    +0.000 A 
ATOM     22  C   UNL     1     -32.551 -11.542  21.046  0.00  0.00    +0.000 A 
ATOM     23  C   UNL     1     -31.636 -12.100  20.149  0.00  0.00    +0.005 A 
ENDBRANCH  16  18
BRANCH  16  24
ATOM     24  C   UNL     1     -29.009 -11.316  18.058  0.00  0.00    +0.316 C 
ATOM     25  O   UNL     1     -27.855 -10.813  17.964  0.00  0.00    -0.250 OA
BRANCH  24  26
ATOM     26  O   UNL     1     -30.013 -10.879  17.197  0.00  0.00    -0.480 OA
ATOM     27  H   UNL     1     -30.176  -9.890  17.050  0.00  0.00    +0.295 HD
ENDBRANCH  24  26
ENDBRANCH  16  24
ENDBRANCH  15  16
ENDBRANCH   2  15
TORSDOF 8
ENDMDL
