MODEL 1
REMARK VINA RESULT:     2.301      0.000      0.000
REMARK INTER + INTRA:           4.209
REMARK INTER:                   3.108
REMARK INTRA:                   1.101
REMARK UNBOUND:                 1.101
REMARK  Name = 
REMARK  6 active torsions:
REMARK  status: ('A' for Active; 'I' for Inactive)
REMARK    1  A    between atoms: S_2  and  N_4
REMARK    2  A    between atoms: S_2  and  C_29
REMARK    3  A    between atoms: N_4  and  C_5
REMARK    4  A    between atoms: C_8  and  C_11
REMARK    5  A    between atoms: C_14  and  C_15
REMARK    6  A    between atoms: C_21  and  C_23
REMARK                            x       y       z     vdW  Elec       q    Type
REMARK                         _______ _______ _______ _____ _____    ______ ____
ROOT
ATOM      1  C   UNL     1     -30.691 -10.828  17.337  0.00  0.00    +0.182 A 
ATOM      2  N   UNL     1     -29.404 -11.263  17.313  0.00  0.00    -0.128 NA
ATOM      3  N   UNL     1     -28.957 -12.037  16.325  0.00  0.00    -0.145 NA
ATOM      4  C   UNL     1     -29.762 -12.419  15.298  0.00  0.00    +0.119 A 
ATOM      5  C   UNL     1     -31.094 -11.945  15.284  0.00  0.00    +0.101 A 
ATOM      6  N   UNL     1     -31.519 -11.173  16.317  0.00  0.00    -0.224 NA
ENDROOT
BRANCH   1  10
ATOM      7  C   UNL     1     -32.119  -8.354  20.567  0.00  0.00    +0.048 A 
ATOM      8  C   UNL     1     -32.960  -9.304  19.970  0.00  0.00    +0.025 A 
ATOM      9  C   UNL     1     -32.500 -10.106  18.923  0.00  0.00    +0.013 A 
ATOM     10  C   UNL     1     -31.181  -9.980  18.451  0.00  0.00    +0.021 A 
ATOM     11  C   UNL     1     -30.335  -9.033  19.057  0.00  0.00    +0.013 A 
ATOM     12  C   UNL     1     -30.796  -8.232  20.104  0.00  0.00    +0.025 A 
BRANCH   7  13
ATOM     13  N   UNL     1     -32.630  -7.541  21.638  0.00  0.00    -0.216 N 
ATOM     14  H   UNL     1     -32.377  -7.781  22.624  0.00  0.00    +0.174 HD
BRANCH  13  16
ATOM     15  O   UNL     1     -33.206  -4.994  22.062  0.00  0.00    -0.149 OA
ATOM     16  S   UNL     1     -33.752  -6.235  21.415  0.00  0.00    +0.079 S 
ATOM     17  O   UNL     1     -35.062  -6.590  22.061  0.00  0.00    -0.149 OA
BRANCH  16  18
ATOM     18  C   UNL     1     -34.019  -5.964  19.704  0.00  0.00    +0.146 A 
ATOM     19  C   UNL     1     -33.437  -4.960  18.944  0.00  0.00    +0.036 A 
ATOM     20  C   UNL     1     -33.855  -4.977  17.609  0.00  0.00    +0.010 A 
ATOM     21  C   UNL     1     -34.762  -5.991  17.321  0.00  0.00    +0.047 A 
ATOM     22  S   UNL     1     -35.046  -6.866  18.730  0.00  0.00    -0.077 S 
ENDBRANCH  16  18
ENDBRANCH  13  16
ENDBRANCH   7  13
ENDBRANCH   1  10
BRANCH   4  23
ATOM     23  C   UNL     1     -29.215 -13.345  14.282  0.00  0.00    +0.004 A 
ATOM     24  C   UNL     1     -28.114 -14.171  14.573  0.00  0.00    +0.010 A 
ATOM     25  C   UNL     1     -27.599 -15.031  13.599  0.00  0.00    +0.001 A 
ATOM     26  C   UNL     1     -28.166 -15.062  12.322  0.00  0.00    +0.000 A 
ATOM     27  C   UNL     1     -29.245 -14.229  12.017  0.00  0.00    +0.001 A 
ATOM     28  C   UNL     1     -29.764 -13.368  12.989  0.00  0.00    +0.010 A 
ENDBRANCH   4  23
BRANCH   5  29
ATOM     29  C   UNL     1     -32.038 -12.210  14.175  0.00  0.00    +0.003 A 
ATOM     30  C   UNL     1     -32.366 -13.534  13.840  0.00  0.00    +0.010 A 
ATOM     31  C   UNL     1     -33.267 -13.796  12.803  0.00  0.00    +0.001 A 
ATOM     32  C   UNL     1     -33.859 -12.740  12.104  0.00  0.00    +0.000 A 
ATOM     33  C   UNL     1     -33.557 -11.420  12.446  0.00  0.00    +0.001 A 
ATOM     34  C   UNL     1     -32.656 -11.153  13.482  0.00  0.00    +0.010 A 
ENDBRANCH   5  29
TORSDOF 6
ENDMDL
