MODEL 1
REMARK VINA RESULT:    -4.880      0.000      0.000
REMARK INTER + INTRA:          -7.088
REMARK INTER:                  -6.307
REMARK INTRA:                  -0.781
REMARK UNBOUND:                -0.781
REMARK  Name = 
REMARK  6 active torsions:
REMARK  status: ('A' for Active; 'I' for Inactive)
REMARK    1  A    between atoms: C_1  and  O_2
REMARK    2  A    between atoms: O_2  and  C_3
REMARK    3  A    between atoms: C_6  and  S_12
REMARK    4  A    between atoms: C_8  and  C_9
REMARK    5  A    between atoms: S_12  and  N_15
REMARK    6  A    between atoms: N_15  and  C_16
REMARK                            x       y       z     vdW  Elec       q    Type
REMARK                         _______ _______ _______ _____ _____    ______ ____
ROOT
ATOM      1  S   UNL     1     -29.825 -13.429  16.683  0.00  0.00    +0.059 S 
ATOM      2  O   UNL     1     -28.819 -13.965  15.707  0.00  0.00    -0.153 OA
ATOM      3  O   UNL     1     -30.419 -14.586  17.438  0.00  0.00    -0.153 OA
ENDROOT
BRANCH   1   7
ATOM      4  C   UNL     1     -33.053 -11.217  14.304  0.00  0.00    +0.132 A 
ATOM      5  C   UNL     1     -32.526 -10.658  15.486  0.00  0.00    +0.048 A 
ATOM      6  C   UNL     1     -31.546 -11.333  16.215  0.00  0.00    +0.032 A 
ATOM      7  C   UNL     1     -31.080 -12.580  15.784  0.00  0.00    +0.106 A 
ATOM      8  C   UNL     1     -31.601 -13.146  14.616  0.00  0.00    +0.045 A 
ATOM      9  C   UNL     1     -32.567 -12.465  13.855  0.00  0.00    +0.080 A 
BRANCH   9  10
ATOM     10  C   UNL     1     -33.063 -13.085  12.605  0.00  0.00    +0.245 C 
ATOM     11  N   UNL     1     -34.375 -12.809  12.111  0.00  0.00    -0.325 N 
ATOM     12  O   UNL     1     -32.303 -13.840  11.940  0.00  0.00    -0.270 OA
ATOM     13  H   UNL     1     -34.965 -12.059  12.535  0.00  0.00    +0.145 HD
ATOM     14  H   UNL     1     -34.723 -13.291  11.254  0.00  0.00    +0.145 HD
ENDBRANCH   9  10
BRANCH   4  16
ATOM     15  C   UNL     1     -34.886  -9.522  14.085  0.00  0.00    +0.277 C 
ATOM     16  O   UNL     1     -34.066 -10.571  13.577  0.00  0.00    -0.494 OA
ENDBRANCH   4  16
ENDBRANCH   1   7
BRANCH   1  17
ATOM     17  N   UNL     1     -29.020 -12.363  17.801  0.00  0.00    -0.178 NA
ATOM     18  H   UNL     1     -29.695 -11.629  18.115  0.00  0.00    +0.149 HD
BRANCH  17  19
ATOM     19  C   UNL     1     -28.437 -13.081  18.952  0.00  0.00    +0.162 C 
ATOM     20  C   UNL     1     -29.371 -13.051  20.198  0.00  0.00    +0.030 C 
ATOM     21  C   UNL     1     -28.666 -13.065  21.570  0.00  0.00    +0.004 C 
ATOM     22  C   UNL     1     -27.760 -14.289  21.808  0.00  0.00    +0.019 C 
ATOM     23  C   UNL     1     -26.573 -14.445  20.832  0.00  0.00    +0.104 C 
ATOM     24  N   UNL     1     -26.201 -13.185  20.187  0.00  0.00    -0.314 N 
ATOM     25  C   UNL     1     -27.068 -12.517  19.259  0.00  0.00    +0.232 C 
ATOM     26  O   UNL     1     -26.692 -11.434  18.734  0.00  0.00    -0.274 OA
ATOM     27  H   UNL     1     -25.261 -12.775  20.388  0.00  0.00    +0.149 HD
ENDBRANCH  17  19
ENDBRANCH   1  17
TORSDOF 5
ENDMDL
MODEL 2
REMARK VINA RESULT:    -4.840      1.324      2.249
REMARK INTER + INTRA:          -7.037
REMARK INTER:                  -6.186
REMARK INTRA:                  -0.850
REMARK UNBOUND:                -0.781
REMARK  Name = 
REMARK  6 active torsions:
REMARK  status: ('A' for Active; 'I' for Inactive)
REMARK    1  A    between atoms: C_1  and  O_2
REMARK    2  A    between atoms: O_2  and  C_3
REMARK    3  A    between atoms: C_6  and  S_12
REMARK    4  A    between atoms: C_8  and  C_9
REMARK    5  A    between atoms: S_12  and  N_15
REMARK    6  A    between atoms: N_15  and  C_16
REMARK                            x       y       z     vdW  Elec       q    Type
REMARK                         _______ _______ _______ _____ _____    ______ ____
ROOT
ATOM      1  S   UNL     1     -29.444 -13.762  16.791  0.00  0.00    +0.059 S 
ATOM      2  O   UNL     1     -28.171 -14.137  16.089  0.00  0.00    -0.153 OA
ATOM      3  O   UNL     1     -30.032 -15.002  17.406  0.00  0.00    -0.153 OA
ENDROOT
BRANCH   1   7
ATOM      4  C   UNL     1     -32.379 -12.008  13.744  0.00  0.00    +0.132 A 
ATOM      5  C   UNL     1     -31.698 -13.212  13.471  0.00  0.00    +0.048 A 
ATOM      6  C   UNL     1     -30.800 -13.744  14.396  0.00  0.00    +0.032 A 
ATOM      7  C   UNL     1     -30.557 -13.084  15.605  0.00  0.00    +0.106 A 
ATOM      8  C   UNL     1     -31.222 -11.886  15.883  0.00  0.00    +0.045 A 
ATOM      9  C   UNL     1     -32.152 -11.351  14.975  0.00  0.00    +0.080 A 
BRANCH   9  10
ATOM     10  C   UNL     1     -32.860 -10.099  15.326  0.00  0.00    +0.245 C 
ATOM     11  N   UNL     1     -34.150  -9.800  14.788  0.00  0.00    -0.325 N 
ATOM     12  O   UNL     1     -32.337  -9.297  16.148  0.00  0.00    -0.270 OA
ATOM     13  H   UNL     1     -34.688 -10.514  14.249  0.00  0.00    +0.145 HD
ATOM     14  H   UNL     1     -34.612  -8.892  15.011  0.00  0.00    +0.145 HD
ENDBRANCH   9  10
BRANCH   4  16
ATOM     15  C   UNL     1     -34.108 -12.173  11.938  0.00  0.00    +0.277 C 
ATOM     16  O   UNL     1     -33.258 -11.435  12.810  0.00  0.00    -0.494 OA
ENDBRANCH   4  16
ENDBRANCH   1   7
BRANCH   1  17
ATOM     17  N   UNL     1     -29.081 -12.610  18.047  0.00  0.00    -0.178 NA
ATOM     18  H   UNL     1     -29.974 -12.171  18.370  0.00  0.00    +0.149 HD
BRANCH  17  19
ATOM     19  C   UNL     1     -28.342 -13.212  19.173  0.00  0.00    +0.162 C 
ATOM     20  C   UNL     1     -29.156 -13.172  20.501  0.00  0.00    +0.030 C 
ATOM     21  C   UNL     1     -28.328 -13.051  21.796  0.00  0.00    +0.004 C 
ATOM     22  C   UNL     1     -27.312 -14.189  22.013  0.00  0.00    +0.019 C 
ATOM     23  C   UNL     1     -26.212 -14.320  20.936  0.00  0.00    +0.104 C 
ATOM     24  N   UNL     1     -25.999 -13.079  20.190  0.00  0.00    -0.314 N 
ATOM     25  C   UNL     1     -26.997 -12.533  19.315  0.00  0.00    +0.232 C 
ATOM     26  O   UNL     1     -26.756 -11.460  18.698  0.00  0.00    -0.274 OA
ATOM     27  H   UNL     1     -25.080 -12.590  20.276  0.00  0.00    +0.149 HD
ENDBRANCH  17  19
ENDBRANCH   1  17
TORSDOF 5
ENDMDL
MODEL 3
REMARK VINA RESULT:    -4.548      3.194      5.112
REMARK INTER + INTRA:          -6.658
REMARK INTER:                  -5.797
REMARK INTRA:                  -0.861
REMARK UNBOUND:                -0.781
REMARK  Name = 
REMARK  6 active torsions:
REMARK  status: ('A' for Active; 'I' for Inactive)
REMARK    1  A    between atoms: C_1  and  O_2
REMARK    2  A    between atoms: O_2  and  C_3
REMARK    3  A    between atoms: C_6  and  S_12
REMARK    4  A    between atoms: C_8  and  C_9
REMARK    5  A    between atoms: S_12  and  N_15
REMARK    6  A    between atoms: N_15  and  C_16
REMARK                            x       y       z     vdW  Elec       q    Type
REMARK                         _______ _______ _______ _____ _____    ______ ____
ROOT
ATOM      1  S   UNL     1     -33.631 -10.892  15.693  0.00  0.00    +0.059 S 
ATOM      2  O   UNL     1     -34.329 -11.533  16.857  0.00  0.00    -0.153 OA
ATOM      3  O   UNL     1     -34.668 -10.476  14.687  0.00  0.00    -0.153 OA
ENDROOT
BRANCH   1   7
ATOM      4  C   UNL     1     -30.730 -13.928  13.865  0.00  0.00    +0.132 A 
ATOM      5  C   UNL     1     -31.549 -13.134  13.038  0.00  0.00    +0.048 A 
ATOM      6  C   UNL     1     -32.437 -12.212  13.594  0.00  0.00    +0.032 A 
ATOM      7  C   UNL     1     -32.531 -12.071  14.982  0.00  0.00    +0.106 A 
ATOM      8  C   UNL     1     -31.726 -12.859  15.812  0.00  0.00    +0.045 A 
ATOM      9  C   UNL     1     -30.807 -13.770  15.267  0.00  0.00    +0.080 A 
BRANCH   9  10
ATOM     10  C   UNL     1     -29.949 -14.558  16.183  0.00  0.00    +0.245 C 
ATOM     11  N   UNL     1     -28.625 -14.945  15.809  0.00  0.00    -0.325 N 
ATOM     12  O   UNL     1     -30.375 -14.859  17.330  0.00  0.00    -0.270 OA
ATOM     13  H   UNL     1     -28.175 -14.568  14.945  0.00  0.00    +0.145 HD
ATOM     14  H   UNL     1     -28.054 -15.539  16.449  0.00  0.00    +0.145 HD
ENDBRANCH   9  10
BRANCH   4  16
ATOM     15  C   UNL     1     -28.846 -14.614  12.362  0.00  0.00    +0.277 C 
ATOM     16  O   UNL     1     -29.857 -14.888  13.326  0.00  0.00    -0.494 OA
ENDBRANCH   4  16
ENDBRANCH   1   7
BRANCH   1  17
ATOM     17  N   UNL     1     -32.771  -9.484  16.252  0.00  0.00    -0.178 NA
ATOM     18  H   UNL     1     -33.460  -8.722  16.445  0.00  0.00    +0.149 HD
BRANCH  17  19
ATOM     19  C   UNL     1     -31.935  -9.763  17.437  0.00  0.00    +0.162 C 
ATOM     20  C   UNL     1     -32.288  -8.836  18.638  0.00  0.00    +0.030 C 
ATOM     21  C   UNL     1     -31.123  -8.485  19.585  0.00  0.00    +0.004 C 
ATOM     22  C   UNL     1     -30.443  -9.704  20.238  0.00  0.00    +0.019 C 
ATOM     23  C   UNL     1     -29.781 -10.704  19.265  0.00  0.00    +0.104 C 
ATOM     24  N   UNL     1     -29.457 -10.104  17.970  0.00  0.00    -0.314 N 
ATOM     25  C   UNL     1     -30.473  -9.662  17.058  0.00  0.00    +0.232 C 
ATOM     26  O   UNL     1     -30.134  -9.153  15.955  0.00  0.00    -0.274 OA
ATOM     27  H   UNL     1     -28.454 -10.021  17.689  0.00  0.00    +0.149 HD
ENDBRANCH  17  19
ENDBRANCH   1  17
TORSDOF 5
ENDMDL
MODEL 4
REMARK VINA RESULT:    -4.440      3.207      5.866
REMARK INTER + INTRA:          -6.519
REMARK INTER:                  -5.846
REMARK INTRA:                  -0.673
REMARK UNBOUND:                -0.781
REMARK  Name = 
REMARK  6 active torsions:
REMARK  status: ('A' for Active; 'I' for Inactive)
REMARK    1  A    between atoms: C_1  and  O_2
REMARK    2  A    between atoms: O_2  and  C_3
REMARK    3  A    between atoms: C_6  and  S_12
REMARK    4  A    between atoms: C_8  and  C_9
REMARK    5  A    between atoms: S_12  and  N_15
REMARK    6  A    between atoms: N_15  and  C_16
REMARK                            x       y       z     vdW  Elec       q    Type
REMARK                         _______ _______ _______ _____ _____    ______ ____
ROOT
ATOM      1  S   UNL     1     -27.531 -12.350  19.270  0.00  0.00    +0.059 S 
ATOM      2  O   UNL     1     -26.874 -12.936  20.486  0.00  0.00    -0.153 OA
ATOM      3  O   UNL     1     -26.539 -11.456  18.578  0.00  0.00    -0.153 OA
ENDROOT
BRANCH   1   7
ATOM      4  C   UNL     1     -31.150  -9.880  20.603  0.00  0.00    +0.132 A 
ATOM      5  C   UNL     1     -30.481 -10.720  21.517  0.00  0.00    +0.048 A 
ATOM      6  C   UNL     1     -29.381 -11.477  21.111  0.00  0.00    +0.032 A 
ATOM      7  C   UNL     1     -28.934 -11.417  19.786  0.00  0.00    +0.106 A 
ATOM      8  C   UNL     1     -29.595 -10.592  18.871  0.00  0.00    +0.045 A 
ATOM      9  C   UNL     1     -30.685  -9.802  19.271  0.00  0.00    +0.080 A 
BRANCH   9  10
ATOM     10  C   UNL     1     -31.332  -8.915  18.276  0.00  0.00    +0.245 C 
ATOM     11  N   UNL     1     -32.045  -7.744  18.680  0.00  0.00    -0.325 N 
ATOM     12  O   UNL     1     -31.220  -9.172  17.047  0.00  0.00    -0.270 OA
ATOM     13  H   UNL     1     -32.011  -7.404  19.667  0.00  0.00    +0.145 HD
ATOM     14  H   UNL     1     -32.533  -7.158  17.968  0.00  0.00    +0.145 HD
ENDBRANCH   9  10
BRANCH   4  16
ATOM     15  C   UNL     1     -33.483  -9.703  21.499  0.00  0.00    +0.277 C 
ATOM     16  O   UNL     1     -32.282  -9.140  20.983  0.00  0.00    -0.494 OA
ENDBRANCH   4  16
ENDBRANCH   1   7
BRANCH   1  17
ATOM     17  N   UNL     1     -27.993 -13.642  18.196  0.00  0.00    -0.178 NA
ATOM     18  H   UNL     1     -28.085 -14.524  18.749  0.00  0.00    +0.149 HD
BRANCH  17  19
ATOM     19  C   UNL     1     -29.232 -13.345  17.451  0.00  0.00    +0.162 C 
ATOM     20  C   UNL     1     -30.479 -14.032  18.085  0.00  0.00    +0.030 C 
ATOM     21  C   UNL     1     -31.598 -14.436  17.104  0.00  0.00    +0.004 C 
ATOM     22  C   UNL     1     -32.186 -13.266  16.292  0.00  0.00    +0.019 C 
ATOM     23  C   UNL     1     -31.195 -12.527  15.366  0.00  0.00    +0.104 C 
ATOM     24  N   UNL     1     -30.029 -13.340  15.021  0.00  0.00    -0.314 N 
ATOM     25  C   UNL     1     -29.053 -13.731  15.999  0.00  0.00    +0.232 C 
ATOM     26  O   UNL     1     -28.068 -14.432  15.642  0.00  0.00    -0.274 OA
ATOM     27  H   UNL     1     -29.886 -13.622  14.025  0.00  0.00    +0.149 HD
ENDBRANCH  17  19
ENDBRANCH   1  17
TORSDOF 5
ENDMDL
MODEL 5
REMARK VINA RESULT:    -4.427      2.579      3.733
REMARK INTER + INTRA:          -6.502
REMARK INTER:                  -5.565
REMARK INTRA:                  -0.937
REMARK UNBOUND:                -0.781
REMARK  Name = 
REMARK  6 active torsions:
REMARK  status: ('A' for Active; 'I' for Inactive)
REMARK    1  A    between atoms: C_1  and  O_2
REMARK    2  A    between atoms: O_2  and  C_3
REMARK    3  A    between atoms: C_6  and  S_12
REMARK    4  A    between atoms: C_8  and  C_9
REMARK    5  A    between atoms: S_12  and  N_15
REMARK    6  A    between atoms: N_15  and  C_16
REMARK                            x       y       z     vdW  Elec       q    Type
REMARK                         _______ _______ _______ _____ _____    ______ ____
ROOT
ATOM      1  S   UNL     1     -28.137 -11.808  18.584  0.00  0.00    +0.059 S 
ATOM      2  O   UNL     1     -26.995 -10.863  18.350  0.00  0.00    -0.153 OA
ATOM      3  O   UNL     1     -27.634 -13.215  18.410  0.00  0.00    -0.153 OA
ENDROOT
BRANCH   1   7
ATOM      4  C   UNL     1     -31.384 -10.927  15.476  0.00  0.00    +0.132 A 
ATOM      5  C   UNL     1     -30.862  -9.892  16.279  0.00  0.00    +0.048 A 
ATOM      6  C   UNL     1     -29.876 -10.160  17.230  0.00  0.00    +0.032 A 
ATOM      7  C   UNL     1     -29.400 -11.464  17.403  0.00  0.00    +0.106 A 
ATOM      8  C   UNL     1     -29.915 -12.499  16.616  0.00  0.00    +0.045 A 
ATOM      9  C   UNL     1     -30.887 -12.240  15.635  0.00  0.00    +0.080 A 
BRANCH   9  10
ATOM     10  C   UNL     1     -31.379 -13.360  14.799  0.00  0.00    +0.245 C 
ATOM     11  N   UNL     1     -31.922 -13.130  13.498  0.00  0.00    -0.325 N 
ATOM     12  O   UNL     1     -31.280 -14.543  15.224  0.00  0.00    -0.270 OA
ATOM     13  H   UNL     1     -31.859 -12.192  13.043  0.00  0.00    +0.145 HD
ATOM     14  H   UNL     1     -32.305 -13.927  12.944  0.00  0.00    +0.145 HD
ENDBRANCH   9  10
BRANCH   4  16
ATOM     15  C   UNL     1     -33.700 -10.193  14.863  0.00  0.00    +0.277 C 
ATOM     16  O   UNL     1     -32.403 -10.684  14.541  0.00  0.00    -0.494 OA
ENDBRANCH   4  16
ENDBRANCH   1   7
BRANCH   1  17
ATOM     17  N   UNL     1     -28.722 -11.601  20.212  0.00  0.00    -0.178 NA
ATOM     18  H   UNL     1     -28.182 -10.831  20.669  0.00  0.00    +0.149 HD
BRANCH  17  19
ATOM     19  C   UNL     1     -30.175 -11.341  20.264  0.00  0.00    +0.162 C 
ATOM     20  C   UNL     1     -30.562 -10.402  21.446  0.00  0.00    +0.030 C 
ATOM     21  C   UNL     1     -31.957 -10.633  22.060  0.00  0.00    +0.004 C 
ATOM     22  C   UNL     1     -33.125 -10.486  21.066  0.00  0.00    +0.019 C 
ATOM     23  C   UNL     1     -33.125 -11.477  19.881  0.00  0.00    +0.104 C 
ATOM     24  N   UNL     1     -32.347 -12.686  20.154  0.00  0.00    -0.314 N 
ATOM     25  C   UNL     1     -30.921 -12.655  20.320  0.00  0.00    +0.232 C 
ATOM     26  O   UNL     1     -30.304 -13.730  20.553  0.00  0.00    -0.274 OA
ATOM     27  H   UNL     1     -32.842 -13.604  20.200  0.00  0.00    +0.149 HD
ENDBRANCH  17  19
ENDBRANCH   1  17
TORSDOF 5
ENDMDL
MODEL 6
REMARK VINA RESULT:    -4.162      3.343      7.520
REMARK INTER + INTRA:          -6.160
REMARK INTER:                  -5.627
REMARK INTRA:                  -0.533
REMARK UNBOUND:                -0.781
REMARK  Name = 
REMARK  6 active torsions:
REMARK  status: ('A' for Active; 'I' for Inactive)
REMARK    1  A    between atoms: C_1  and  O_2
REMARK    2  A    between atoms: O_2  and  C_3
REMARK    3  A    between atoms: C_6  and  S_12
REMARK    4  A    between atoms: C_8  and  C_9
REMARK    5  A    between atoms: S_12  and  N_15
REMARK    6  A    between atoms: N_15  and  C_16
REMARK                            x       y       z     vdW  Elec       q    Type
REMARK                         _______ _______ _______ _____ _____    ______ ____
ROOT
ATOM      1  S   UNL     1     -31.291  -8.544  19.757  0.00  0.00    +0.059 S 
ATOM      2  O   UNL     1     -30.330  -7.457  20.142  0.00  0.00    -0.153 OA
ATOM      3  O   UNL     1     -32.509  -8.434  20.632  0.00  0.00    -0.153 OA
ENDROOT
BRANCH   1   7
ATOM      4  C   UNL     1     -29.261 -12.606  20.347  0.00  0.00    +0.132 A 
ATOM      5  C   UNL     1     -30.331 -12.214  21.177  0.00  0.00    +0.048 A 
ATOM      6  C   UNL     1     -30.947 -10.974  21.001  0.00  0.00    +0.032 A 
ATOM      7  C   UNL     1     -30.504 -10.101  20.002  0.00  0.00    +0.106 A 
ATOM      8  C   UNL     1     -29.439 -10.478  19.177  0.00  0.00    +0.045 A 
ATOM      9  C   UNL     1     -28.828 -11.735  19.322  0.00  0.00    +0.080 A 
BRANCH   9  10
ATOM     10  C   UNL     1     -27.728 -12.108  18.403  0.00  0.00    +0.245 C 
ATOM     11  N   UNL     1     -26.558 -11.296  18.278  0.00  0.00    -0.325 N 
ATOM     12  O   UNL     1     -27.803 -13.182  17.746  0.00  0.00    -0.270 OA
ATOM     13  H   UNL     1     -26.382 -10.500  18.929  0.00  0.00    +0.145 HD
ATOM     14  H   UNL     1     -25.816 -11.552  17.591  0.00  0.00    +0.145 HD
ENDBRANCH   9  10
BRANCH   4  16
ATOM     15  C   UNL     1     -27.871 -14.193  21.699  0.00  0.00    +0.277 C 
ATOM     16  O   UNL     1     -28.603 -13.833  20.532  0.00  0.00    -0.494 OA
ENDBRANCH   4  16
ENDBRANCH   1   7
BRANCH   1  17
ATOM     17  N   UNL     1     -31.755  -8.328  18.091  0.00  0.00    -0.178 NA
ATOM     18  H   UNL     1     -30.962  -7.884  17.575  0.00  0.00    +0.149 HD
BRANCH  17  19
ATOM     19  C   UNL     1     -32.173  -9.590  17.449  0.00  0.00    +0.162 C 
ATOM     20  C   UNL     1     -31.365  -9.885  16.151  0.00  0.00    +0.030 C 
ATOM     21  C   UNL     1     -32.118 -10.660  15.050  0.00  0.00    +0.004 C 
ATOM     22  C   UNL     1     -32.643 -12.041  15.488  0.00  0.00    +0.019 C 
ATOM     23  C   UNL     1     -33.672 -12.032  16.640  0.00  0.00    +0.104 C 
ATOM     24  N   UNL     1     -34.354 -10.745  16.780  0.00  0.00    -0.314 N 
ATOM     25  C   UNL     1     -33.663  -9.556  17.191  0.00  0.00    +0.232 C 
ATOM     26  O   UNL     1     -34.304  -8.475  17.296  0.00  0.00    -0.274 OA
ATOM     27  H   UNL     1     -35.383 -10.697  16.603  0.00  0.00    +0.149 HD
ENDBRANCH  17  19
ENDBRANCH   1  17
TORSDOF 5
ENDMDL
MODEL 7
REMARK VINA RESULT:    -4.050      2.791      7.449
REMARK INTER + INTRA:          -6.016
REMARK INTER:                  -5.101
REMARK INTRA:                  -0.915
REMARK UNBOUND:                -0.781
REMARK  Name = 
REMARK  6 active torsions:
REMARK  status: ('A' for Active; 'I' for Inactive)
REMARK    1  A    between atoms: C_1  and  O_2
REMARK    2  A    between atoms: O_2  and  C_3
REMARK    3  A    between atoms: C_6  and  S_12
REMARK    4  A    between atoms: C_8  and  C_9
REMARK    5  A    between atoms: S_12  and  N_15
REMARK    6  A    between atoms: N_15  and  C_16
REMARK                            x       y       z     vdW  Elec       q    Type
REMARK                         _______ _______ _______ _____ _____    ______ ____
ROOT
ATOM      1  S   UNL     1     -30.646 -13.644  16.805  0.00  0.00    +0.059 S 
ATOM      2  O   UNL     1     -31.681 -14.692  16.511  0.00  0.00    -0.153 OA
ATOM      3  O   UNL     1     -29.318 -14.326  16.988  0.00  0.00    -0.153 OA
ENDROOT
BRANCH   1   7
ATOM      4  C   UNL     1     -31.831 -11.497  20.672  0.00  0.00    +0.132 A 
ATOM      5  C   UNL     1     -32.800 -11.788  19.690  0.00  0.00    +0.048 A 
ATOM      6  C   UNL     1     -32.439 -12.438  18.509  0.00  0.00    +0.032 A 
ATOM      7  C   UNL     1     -31.107 -12.801  18.282  0.00  0.00    +0.106 A 
ATOM      8  C   UNL     1     -30.138 -12.512  19.247  0.00  0.00    +0.045 A 
ATOM      9  C   UNL     1     -30.490 -11.884  20.454  0.00  0.00    +0.080 A 
BRANCH   9  10
ATOM     10  C   UNL     1     -29.437 -11.629  21.464  0.00  0.00    +0.245 C 
ATOM     11  N   UNL     1     -29.277 -10.340  22.060  0.00  0.00    -0.325 N 
ATOM     12  O   UNL     1     -28.692 -12.575  21.839  0.00  0.00    -0.270 OA
ATOM     13  H   UNL     1     -29.981  -9.584  21.908  0.00  0.00    +0.145 HD
ATOM     14  H   UNL     1     -28.500 -10.169  22.735  0.00  0.00    +0.145 HD
ENDBRANCH   9  10
BRANCH   4  16
ATOM     15  C   UNL     1     -33.363 -10.060  22.039  0.00  0.00    +0.277 C 
ATOM     16  O   UNL     1     -32.168 -10.810  21.850  0.00  0.00    -0.494 OA
ENDBRANCH   4  16
ENDBRANCH   1   7
BRANCH   1  17
ATOM     17  N   UNL     1     -30.550 -12.546  15.455  0.00  0.00    -0.178 NA
ATOM     18  H   UNL     1     -29.685 -12.759  14.908  0.00  0.00    +0.149 HD
BRANCH  17  19
ATOM     19  C   UNL     1     -31.751 -12.594  14.598  0.00  0.00    +0.162 C 
ATOM     20  C   UNL     1     -31.450 -13.201  13.196  0.00  0.00    +0.030 C 
ATOM     21  C   UNL     1     -32.303 -12.663  12.030  0.00  0.00    +0.004 C 
ATOM     22  C   UNL     1     -33.821 -12.859  12.207  0.00  0.00    +0.019 C 
ATOM     23  C   UNL     1     -34.452 -12.150  13.425  0.00  0.00    +0.104 C 
ATOM     24  N   UNL     1     -33.648 -11.025  13.905  0.00  0.00    -0.314 N 
ATOM     25  C   UNL     1     -32.353 -11.210  14.496  0.00  0.00    +0.232 C 
ATOM     26  O   UNL     1     -31.707 -10.202  14.892  0.00  0.00    -0.274 OA
ATOM     27  H   UNL     1     -34.042 -10.060  13.840  0.00  0.00    +0.149 HD
ENDBRANCH  17  19
ENDBRANCH   1  17
TORSDOF 5
ENDMDL
MODEL 8
REMARK VINA RESULT:    -2.785      1.936      7.611
REMARK INTER + INTRA:          -4.380
REMARK INTER:                  -3.510
REMARK INTRA:                  -0.870
REMARK UNBOUND:                -0.781
REMARK  Name = 
REMARK  6 active torsions:
REMARK  status: ('A' for Active; 'I' for Inactive)
REMARK    1  A    between atoms: C_1  and  O_2
REMARK    2  A    between atoms: O_2  and  C_3
REMARK    3  A    between atoms: C_6  and  S_12
REMARK    4  A    between atoms: C_8  and  C_9
REMARK    5  A    between atoms: S_12  and  N_15
REMARK    6  A    between atoms: N_15  and  C_16
REMARK                            x       y       z     vdW  Elec       q    Type
REMARK                         _______ _______ _______ _____ _____    ______ ____
ROOT
ATOM      1  S   UNL     1     -30.098 -14.142  15.980  0.00  0.00    +0.059 S 
ATOM      2  O   UNL     1     -31.320 -15.007  15.873  0.00  0.00    -0.153 OA
ATOM      3  O   UNL     1     -28.900 -14.961  15.586  0.00  0.00    -0.153 OA
ENDROOT
BRANCH   1   7
ATOM      4  C   UNL     1     -29.676 -12.775  20.330  0.00  0.00    +0.132 A 
ATOM      5  C   UNL     1     -30.944 -12.825  19.715  0.00  0.00    +0.048 A 
ATOM      6  C   UNL     1     -31.073 -13.236  18.388  0.00  0.00    +0.032 A 
ATOM      7  C   UNL     1     -29.942 -13.597  17.648  0.00  0.00    +0.106 A 
ATOM      8  C   UNL     1     -28.679 -13.545  18.247  0.00  0.00    +0.045 A 
ATOM      9  C   UNL     1     -28.536 -13.161  19.591  0.00  0.00    +0.080 A 
BRANCH   9  10
ATOM     10  C   UNL     1     -27.183 -13.156  20.195  0.00  0.00    +0.245 C 
ATOM     11  N   UNL     1     -26.980 -13.522  21.561  0.00  0.00    -0.325 N 
ATOM     12  O   UNL     1     -26.184 -12.864  19.482  0.00  0.00    -0.270 OA
ATOM     13  H   UNL     1     -27.751 -13.937  22.130  0.00  0.00    +0.145 HD
ATOM     14  H   UNL     1     -26.026 -13.468  21.980  0.00  0.00    +0.145 HD
ENDBRANCH   9  10
BRANCH   4  16
ATOM     15  C   UNL     1     -29.600 -10.967  22.062  0.00  0.00    +0.277 C 
ATOM     16  O   UNL     1     -29.520 -12.328  21.652  0.00  0.00    -0.494 OA
ENDBRANCH   4  16
ENDBRANCH   1   7
BRANCH   1  17
ATOM     17  N   UNL     1     -30.260 -12.793  14.888  0.00  0.00    -0.178 NA
ATOM     18  H   UNL     1     -29.536 -12.877  14.138  0.00  0.00    +0.149 HD
BRANCH  17  19
ATOM     19  C   UNL     1     -31.615 -12.687  14.314  0.00  0.00    +0.162 C 
ATOM     20  C   UNL     1     -31.657 -13.123  12.819  0.00  0.00    +0.030 C 
ATOM     21  C   UNL     1     -32.702 -12.409  11.937  0.00  0.00    +0.004 C 
ATOM     22  C   UNL     1     -34.158 -12.571  12.417  0.00  0.00    +0.019 C 
ATOM     23  C   UNL     1     -34.470 -11.999  13.817  0.00  0.00    +0.104 C 
ATOM     24  N   UNL     1     -33.512 -10.974  14.237  0.00  0.00    -0.314 N 
ATOM     25  C   UNL     1     -32.136 -11.280  14.506  0.00  0.00    +0.232 C 
ATOM     26  O   UNL     1     -31.358 -10.355  14.866  0.00  0.00    -0.274 OA
ATOM     27  H   UNL     1     -33.849  -9.994  14.372  0.00  0.00    +0.149 HD
ENDBRANCH  17  19
ENDBRANCH   1  17
TORSDOF 5
ENDMDL
