MODEL 1
REMARK VINA RESULT:    -4.986      0.000      0.000
REMARK INTER + INTRA:          -6.548
REMARK INTER:                  -5.860
REMARK INTRA:                  -0.688
REMARK UNBOUND:                -0.688
REMARK  Name = 
REMARK  3 active torsions:
REMARK  status: ('A' for Active; 'I' for Inactive)
REMARK    1  A    between atoms: S_2  and  N_4
REMARK    2  A    between atoms: S_2  and  C_14
REMARK    3  A    between atoms: N_4  and  C_5
REMARK                            x       y       z     vdW  Elec       q    Type
REMARK                         _______ _______ _______ _____ _____    ______ ____
ROOT
ATOM      1  O   UNL     1     -32.402 -10.762  19.636  0.00  0.00    -0.150 OA
ATOM      2  S   UNL     1     -31.575 -12.015  19.716  0.00  0.00    +0.073 S 
ATOM      3  O   UNL     1     -31.556 -12.491  21.142  0.00  0.00    -0.150 OA
ENDROOT
BRANCH   2   4
ATOM      4  C   UNL     1     -29.908 -11.707  19.195  0.00  0.00    +0.118 A 
ATOM      5  C   UNL     1     -29.680 -10.709  18.235  0.00  0.00    +0.032 A 
ATOM      6  C   UNL     1     -28.395 -10.463  17.750  0.00  0.00    +0.042 A 
ATOM      7  C   UNL     1     -27.313 -11.210  18.214  0.00  0.00    +0.149 A 
ATOM      8  F   UNL     1     -26.071 -10.961  17.728  0.00  0.00    -0.203 F 
ATOM      9  C   UNL     1     -27.510 -12.206  19.176  0.00  0.00    +0.108 A 
ATOM     10  N   UNL     1     -26.446 -12.931  19.620  0.00  0.00    -0.252 NA
ATOM     11  C   UNL     1     -26.581 -13.907  20.552  0.00  0.00    +0.111 A 
ATOM     12  C   UNL     1     -27.835 -14.191  21.090  0.00  0.00    +0.020 A 
ATOM     13  C   UNL     1     -28.947 -13.468  20.662  0.00  0.00    +0.013 A 
ATOM     14  C   UNL     1     -28.809 -12.462  19.684  0.00  0.00    +0.030 A 
ENDBRANCH   2   4
BRANCH   2  15
ATOM     15  N   UNL     1     -32.297 -13.228  18.709  0.00  0.00    -0.216 N 
ATOM     16  H   UNL     1     -32.915 -13.929  19.175  0.00  0.00    +0.174 HD
BRANCH  15  17
ATOM     17  C   UNL     1     -31.879 -13.449  17.354  0.00  0.00    +0.059 A 
ATOM     18  C   UNL     1     -30.904 -14.418  17.018  0.00  0.00    +0.025 A 
ATOM     19  C   UNL     1     -30.526 -14.623  15.671  0.00  0.00    +0.004 A 
ATOM     20  C   UNL     1     -31.110 -13.864  14.641  0.00  0.00    +0.028 A 
ATOM     21  C   UNL     1     -32.061 -12.913  15.002  0.00  0.00    +0.068 A 
ATOM     22  N   UNL     1     -32.758 -12.091  14.204  0.00  0.00    -0.277 N 
ATOM     23  N   UNL     1     -33.573 -11.364  14.960  0.00  0.00    -0.181 NA
ATOM     24  C   UNL     1     -33.393 -11.724  16.255  0.00  0.00    +0.144 A 
ATOM     25  C   UNL     1     -32.428 -12.710  16.302  0.00  0.00    +0.042 A 
ATOM     26  H   UNL     1     -32.696 -12.022  13.164  0.00  0.00    +0.189 HD
ENDBRANCH  15  17
ENDBRANCH   2  15
TORSDOF 3
ENDMDL
MODEL 2
REMARK VINA RESULT:    -4.914      3.252      6.353
REMARK INTER + INTRA:          -6.464
REMARK INTER:                  -6.020
REMARK INTRA:                  -0.444
REMARK UNBOUND:                -0.688
REMARK  Name = 
REMARK  3 active torsions:
REMARK  status: ('A' for Active; 'I' for Inactive)
REMARK    1  A    between atoms: S_2  and  N_4
REMARK    2  A    between atoms: S_2  and  C_14
REMARK    3  A    between atoms: N_4  and  C_5
REMARK                            x       y       z     vdW  Elec       q    Type
REMARK                         _______ _______ _______ _____ _____    ______ ____
ROOT
ATOM      1  O   UNL     1     -29.050 -14.938  15.710  0.00  0.00    -0.150 OA
ATOM      2  S   UNL     1     -30.052 -13.985  16.300  0.00  0.00    +0.073 S 
ATOM      3  O   UNL     1     -30.840 -14.706  17.358  0.00  0.00    -0.150 OA
ENDROOT
BRANCH   2   4
ATOM      4  C   UNL     1     -31.172 -13.395  15.058  0.00  0.00    +0.118 A 
ATOM      5  C   UNL     1     -30.904 -13.701  13.714  0.00  0.00    +0.032 A 
ATOM      6  C   UNL     1     -31.722 -13.217  12.693  0.00  0.00    +0.042 A 
ATOM      7  C   UNL     1     -32.824 -12.417  12.994  0.00  0.00    +0.149 A 
ATOM      8  F   UNL     1     -33.605 -11.949  11.988  0.00  0.00    -0.203 F 
ATOM      9  C   UNL     1     -33.118 -12.101  14.324  0.00  0.00    +0.108 A 
ATOM     10  N   UNL     1     -34.194 -11.316  14.606  0.00  0.00    -0.252 NA
ATOM     11  C   UNL     1     -34.526 -10.981  15.878  0.00  0.00    +0.111 A 
ATOM     12  C   UNL     1     -33.760 -11.447  16.945  0.00  0.00    +0.020 A 
ATOM     13  C   UNL     1     -32.652 -12.255  16.696  0.00  0.00    +0.013 A 
ATOM     14  C   UNL     1     -32.300 -12.593  15.374  0.00  0.00    +0.030 A 
ENDBRANCH   2   4
BRANCH   2  15
ATOM     15  N   UNL     1     -29.204 -12.652  17.015  0.00  0.00    -0.216 N 
ATOM     16  H   UNL     1     -28.534 -12.131  16.405  0.00  0.00    +0.174 HD
BRANCH  15  17
ATOM     17  C   UNL     1     -29.197 -12.416  18.430  0.00  0.00    +0.059 A 
ATOM     18  C   UNL     1     -28.863 -13.431  19.358  0.00  0.00    +0.025 A 
ATOM     19  C   UNL     1     -28.850 -13.162  20.746  0.00  0.00    +0.004 A 
ATOM     20  C   UNL     1     -29.171 -11.881  21.229  0.00  0.00    +0.028 A 
ATOM     21  C   UNL     1     -29.502 -10.904  20.293  0.00  0.00    +0.068 A 
ATOM     22  N   UNL     1     -29.824  -9.621  20.511  0.00  0.00    -0.277 N 
ATOM     23  N   UNL     1     -30.044  -9.039  19.337  0.00  0.00    -0.181 NA
ATOM     24  C   UNL     1     -29.862  -9.961  18.360  0.00  0.00    +0.144 A 
ATOM     25  C   UNL     1     -29.518 -11.160  18.952  0.00  0.00    +0.042 A 
ATOM     26  H   UNL     1     -29.888  -9.137  21.434  0.00  0.00    +0.189 HD
ENDBRANCH  15  17
ENDBRANCH   2  15
TORSDOF 3
ENDMDL
MODEL 3
REMARK VINA RESULT:    -4.721      3.752      5.774
REMARK INTER + INTRA:          -6.238
REMARK INTER:                  -5.642
REMARK INTRA:                  -0.596
REMARK UNBOUND:                -0.688
REMARK  Name = 
REMARK  3 active torsions:
REMARK  status: ('A' for Active; 'I' for Inactive)
REMARK    1  A    between atoms: S_2  and  N_4
REMARK    2  A    between atoms: S_2  and  C_14
REMARK    3  A    between atoms: N_4  and  C_5
REMARK                            x       y       z     vdW  Elec       q    Type
REMARK                         _______ _______ _______ _____ _____    ______ ____
ROOT
ATOM      1  O   UNL     1     -34.813 -11.931  15.781  0.00  0.00    -0.150 OA
ATOM      2  S   UNL     1     -34.007 -11.354  14.651  0.00  0.00    +0.073 S 
ATOM      3  O   UNL     1     -34.893 -11.219  13.445  0.00  0.00    -0.150 OA
ENDROOT
BRANCH   2   4
ATOM      4  C   UNL     1     -32.642 -12.410  14.242  0.00  0.00    +0.118 A 
ATOM      5  C   UNL     1     -32.288 -12.554  12.891  0.00  0.00    +0.032 A 
ATOM      6  C   UNL     1     -31.258 -13.413  12.509  0.00  0.00    +0.042 A 
ATOM      7  C   UNL     1     -30.562 -14.149  13.468  0.00  0.00    +0.149 A 
ATOM      8  F   UNL     1     -29.568 -14.985  13.079  0.00  0.00    -0.203 F 
ATOM      9  C   UNL     1     -30.891 -14.021  14.822  0.00  0.00    +0.108 A 
ATOM     10  N   UNL     1     -30.207 -14.745  15.750  0.00  0.00    -0.252 NA
ATOM     11  C   UNL     1     -30.482 -14.658  17.076  0.00  0.00    +0.111 A 
ATOM     12  C   UNL     1     -31.488 -13.804  17.525  0.00  0.00    +0.020 A 
ATOM     13  C   UNL     1     -32.208 -13.044  16.604  0.00  0.00    +0.013 A 
ATOM     14  C   UNL     1     -31.930 -13.144  15.227  0.00  0.00    +0.030 A 
ENDBRANCH   2   4
BRANCH   2  15
ATOM     15  N   UNL     1     -33.424  -9.789  15.121  0.00  0.00    -0.216 N 
ATOM     16  H   UNL     1     -33.101  -9.152  14.359  0.00  0.00    +0.174 HD
BRANCH  15  17
ATOM     17  C   UNL     1     -33.137  -9.455  16.487  0.00  0.00    +0.059 A 
ATOM     18  C   UNL     1     -34.152  -9.069  17.394  0.00  0.00    +0.025 A 
ATOM     19  C   UNL     1     -33.839  -8.762  18.738  0.00  0.00    +0.004 A 
ATOM     20  C   UNL     1     -32.510  -8.832  19.197  0.00  0.00    +0.028 A 
ATOM     21  C   UNL     1     -31.532  -9.208  18.280  0.00  0.00    +0.068 A 
ATOM     22  N   UNL     1     -30.216  -9.359  18.486  0.00  0.00    -0.277 N 
ATOM     23  N   UNL     1     -29.656  -9.751  17.346  0.00  0.00    -0.181 NA
ATOM     24  C   UNL     1     -30.625  -9.850  16.404  0.00  0.00    +0.144 A 
ATOM     25  C   UNL     1     -31.830  -9.503  16.980  0.00  0.00    +0.042 A 
ATOM     26  H   UNL     1     -29.698  -9.209  19.380  0.00  0.00    +0.189 HD
ENDBRANCH  15  17
ENDBRANCH   2  15
TORSDOF 3
ENDMDL
MODEL 4
REMARK VINA RESULT:    -4.670      3.036      6.054
REMARK INTER + INTRA:          -6.177
REMARK INTER:                  -5.779
REMARK INTRA:                  -0.398
REMARK UNBOUND:                -0.688
REMARK  Name = 
REMARK  3 active torsions:
REMARK  status: ('A' for Active; 'I' for Inactive)
REMARK    1  A    between atoms: S_2  and  N_4
REMARK    2  A    between atoms: S_2  and  C_14
REMARK    3  A    between atoms: N_4  and  C_5
REMARK                            x       y       z     vdW  Elec       q    Type
REMARK                         _______ _______ _______ _____ _____    ______ ____
ROOT
ATOM      1  O   UNL     1     -31.270 -15.027  17.674  0.00  0.00    -0.150 OA
ATOM      2  S   UNL     1     -31.372 -13.535  17.527  0.00  0.00    +0.073 S 
ATOM      3  O   UNL     1     -32.495 -13.039  18.394  0.00  0.00    -0.150 OA
ENDROOT
BRANCH   2   4
ATOM      4  C   UNL     1     -31.708 -13.085  15.844  0.00  0.00    +0.118 A 
ATOM      5  C   UNL     1     -32.752 -12.183  15.588  0.00  0.00    +0.032 A 
ATOM      6  C   UNL     1     -33.094 -11.838  14.280  0.00  0.00    +0.042 A 
ATOM      7  C   UNL     1     -32.401 -12.388  13.203  0.00  0.00    +0.149 A 
ATOM      8  F   UNL     1     -32.750 -12.046  11.938  0.00  0.00    -0.203 F 
ATOM      9  C   UNL     1     -31.352 -13.285  13.429  0.00  0.00    +0.108 A 
ATOM     10  N   UNL     1     -30.683 -13.817  12.370  0.00  0.00    -0.252 NA
ATOM     11  C   UNL     1     -29.657 -14.690  12.532  0.00  0.00    +0.111 A 
ATOM     12  C   UNL     1     -29.254 -15.062  13.814  0.00  0.00    +0.020 A 
ATOM     13  C   UNL     1     -29.913 -14.535  14.923  0.00  0.00    +0.013 A 
ATOM     14  C   UNL     1     -30.987 -13.639  14.754  0.00  0.00    +0.030 A 
ENDBRANCH   2   4
BRANCH   2  15
ATOM     15  N   UNL     1     -29.879 -12.818  18.044  0.00  0.00    -0.216 N 
ATOM     16  H   UNL     1     -29.037 -12.990  17.451  0.00  0.00    +0.174 HD
BRANCH  15  17
ATOM     17  C   UNL     1     -29.716 -12.240  19.348  0.00  0.00    +0.059 A 
ATOM     18  C   UNL     1     -29.314 -13.010  20.465  0.00  0.00    +0.025 A 
ATOM     19  C   UNL     1     -29.146 -12.408  21.733  0.00  0.00    +0.004 A 
ATOM     20  C   UNL     1     -29.380 -11.032  21.907  0.00  0.00    +0.028 A 
ATOM     21  C   UNL     1     -29.782 -10.301  20.792  0.00  0.00    +0.068 A 
ATOM     22  N   UNL     1     -30.045  -8.989  20.710  0.00  0.00    -0.277 N 
ATOM     23  N   UNL     1     -30.372  -8.704  19.454  0.00  0.00    -0.181 NA
ATOM     24  C   UNL     1     -30.319  -9.848  18.727  0.00  0.00    +0.144 A 
ATOM     25  C   UNL     1     -29.947 -10.879  19.566  0.00  0.00    +0.042 A 
ATOM     26  H   UNL     1     -29.998  -8.289  21.483  0.00  0.00    +0.189 HD
ENDBRANCH  15  17
ENDBRANCH   2  15
TORSDOF 3
ENDMDL
MODEL 5
REMARK VINA RESULT:    -4.624      3.308      5.884
REMARK INTER + INTRA:          -6.123
REMARK INTER:                  -5.609
REMARK INTRA:                  -0.514
REMARK UNBOUND:                -0.688
REMARK  Name = 
REMARK  3 active torsions:
REMARK  status: ('A' for Active; 'I' for Inactive)
REMARK    1  A    between atoms: S_2  and  N_4
REMARK    2  A    between atoms: S_2  and  C_14
REMARK    3  A    between atoms: N_4  and  C_5
REMARK                            x       y       z     vdW  Elec       q    Type
REMARK                         _______ _______ _______ _____ _____    ______ ____
ROOT
ATOM      1  O   UNL     1     -32.366  -9.294  16.697  0.00  0.00    -0.150 OA
ATOM      2  S   UNL     1     -31.535 -10.545  16.769  0.00  0.00    +0.073 S 
ATOM      3  O   UNL     1     -30.085 -10.159  16.851  0.00  0.00    -0.150 OA
ENDROOT
BRANCH   2   4
ATOM      4  C   UNL     1     -31.777 -11.550  15.327  0.00  0.00    +0.118 A 
ATOM      5  C   UNL     1     -32.789 -11.191  14.423  0.00  0.00    +0.032 A 
ATOM      6  C   UNL     1     -33.057 -11.977  13.301  0.00  0.00    +0.042 A 
ATOM      7  C   UNL     1     -32.321 -13.137  13.062  0.00  0.00    +0.149 A 
ATOM      8  F   UNL     1     -32.599 -13.892  11.970  0.00  0.00    -0.203 F 
ATOM      9  C   UNL     1     -31.303 -13.515  13.943  0.00  0.00    +0.108 A 
ATOM     10  N   UNL     1     -30.593 -14.650  13.701  0.00  0.00    -0.252 NA
ATOM     11  C   UNL     1     -29.594 -15.062  14.522  0.00  0.00    +0.111 A 
ATOM     12  C   UNL     1     -29.264 -14.313  15.650  0.00  0.00    +0.020 A 
ATOM     13  C   UNL     1     -29.968 -13.143  15.929  0.00  0.00    +0.013 A 
ATOM     14  C   UNL     1     -31.013 -12.722  15.083  0.00  0.00    +0.030 A 
ENDBRANCH   2   4
BRANCH   2  15
ATOM     15  N   UNL     1     -31.981 -11.432  18.191  0.00  0.00    -0.216 N 
ATOM     16  H   UNL     1     -32.990 -11.681  18.301  0.00  0.00    +0.174 HD
BRANCH  15  17
ATOM     17  C   UNL     1     -31.090 -11.598  19.304  0.00  0.00    +0.059 A 
ATOM     18  C   UNL     1     -30.484 -12.841  19.601  0.00  0.00    +0.025 A 
ATOM     19  C   UNL     1     -29.598 -12.968  20.695  0.00  0.00    +0.004 A 
ATOM     20  C   UNL     1     -29.305 -11.859  21.510  0.00  0.00    +0.028 A 
ATOM     21  C   UNL     1     -29.922 -10.650  21.198  0.00  0.00    +0.068 A 
ATOM     22  N   UNL     1     -29.787  -9.466  21.812  0.00  0.00    -0.277 N 
ATOM     23  N   UNL     1     -30.537  -8.574  21.174  0.00  0.00    -0.181 NA
ATOM     24  C   UNL     1     -31.158  -9.196  20.142  0.00  0.00    +0.144 A 
ATOM     25  C   UNL     1     -30.780 -10.524  20.143  0.00  0.00    +0.042 A 
ATOM     26  H   UNL     1     -29.193  -9.254  22.645  0.00  0.00    +0.189 HD
ENDBRANCH  15  17
ENDBRANCH   2  15
TORSDOF 3
ENDMDL
MODEL 6
REMARK VINA RESULT:    -4.567      2.837      3.924
REMARK INTER + INTRA:          -6.056
REMARK INTER:                  -5.539
REMARK INTRA:                  -0.517
REMARK UNBOUND:                -0.688
REMARK  Name = 
REMARK  3 active torsions:
REMARK  status: ('A' for Active; 'I' for Inactive)
REMARK    1  A    between atoms: S_2  and  N_4
REMARK    2  A    between atoms: S_2  and  C_14
REMARK    3  A    between atoms: N_4  and  C_5
REMARK                            x       y       z     vdW  Elec       q    Type
REMARK                         _______ _______ _______ _____ _____    ______ ____
ROOT
ATOM      1  O   UNL     1     -31.366 -14.683  16.292  0.00  0.00    -0.150 OA
ATOM      2  S   UNL     1     -30.243 -13.690  16.182  0.00  0.00    +0.073 S 
ATOM      3  O   UNL     1     -29.047 -14.378  15.585  0.00  0.00    -0.150 OA
ENDROOT
BRANCH   2   4
ATOM      4  C   UNL     1     -29.799 -13.057  17.779  0.00  0.00    +0.118 A 
ATOM      5  C   UNL     1     -28.456 -13.129  18.178  0.00  0.00    +0.032 A 
ATOM      6  C   UNL     1     -28.061 -12.695  19.444  0.00  0.00    +0.042 A 
ATOM      7  C   UNL     1     -29.002 -12.183  20.337  0.00  0.00    +0.149 A 
ATOM      8  F   UNL     1     -28.603 -11.772  21.566  0.00  0.00    -0.203 F 
ATOM      9  C   UNL     1     -30.347 -12.094  19.963  0.00  0.00    +0.108 A 
ATOM     10  N   UNL     1     -31.257 -11.594  20.844  0.00  0.00    -0.252 NA
ATOM     11  C   UNL     1     -32.573 -11.485  20.532  0.00  0.00    +0.111 A 
ATOM     12  C   UNL     1     -33.029 -11.883  19.277  0.00  0.00    +0.020 A 
ATOM     13  C   UNL     1     -32.126 -12.397  18.348  0.00  0.00    +0.013 A 
ATOM     14  C   UNL     1     -30.761 -12.523  18.676  0.00  0.00    +0.030 A 
ENDBRANCH   2   4
BRANCH   2  15
ATOM     15  N   UNL     1     -30.742 -12.391  15.148  0.00  0.00    -0.216 N 
ATOM     16  H   UNL     1     -30.511 -11.420  15.456  0.00  0.00    +0.174 HD
BRANCH  15  17
ATOM     17  C   UNL     1     -31.657 -12.585  14.058  0.00  0.00    +0.059 A 
ATOM     18  C   UNL     1     -31.372 -13.465  12.988  0.00  0.00    +0.025 A 
ATOM     19  C   UNL     1     -32.301 -13.646  11.938  0.00  0.00    +0.004 A 
ATOM     20  C   UNL     1     -33.524 -12.951  11.938  0.00  0.00    +0.028 A 
ATOM     21  C   UNL     1     -33.773 -12.086  13.000  0.00  0.00    +0.068 A 
ATOM     22  N   UNL     1     -34.863 -11.337  13.223  0.00  0.00    -0.277 N 
ATOM     23  N   UNL     1     -34.694 -10.680  14.365  0.00  0.00    -0.181 NA
ATOM     24  C   UNL     1     -33.482 -11.012  14.875  0.00  0.00    +0.144 A 
ATOM     25  C   UNL     1     -32.878 -11.907  14.015  0.00  0.00    +0.042 A 
ATOM     26  H   UNL     1     -35.715 -11.272  12.622  0.00  0.00    +0.189 HD
ENDBRANCH  15  17
ENDBRANCH   2  15
TORSDOF 3
ENDMDL
MODEL 7
REMARK VINA RESULT:    -4.529      2.856      3.930
REMARK INTER + INTRA:          -6.011
REMARK INTER:                  -5.479
REMARK INTRA:                  -0.533
REMARK UNBOUND:                -0.688
REMARK  Name = 
REMARK  3 active torsions:
REMARK  status: ('A' for Active; 'I' for Inactive)
REMARK    1  A    between atoms: S_2  and  N_4
REMARK    2  A    between atoms: S_2  and  C_14
REMARK    3  A    between atoms: N_4  and  C_5
REMARK                            x       y       z     vdW  Elec       q    Type
REMARK                         _______ _______ _______ _____ _____    ______ ____
ROOT
ATOM      1  O   UNL     1     -30.770  -9.705  15.273  0.00  0.00    -0.150 OA
ATOM      2  S   UNL     1     -31.894  -9.980  16.232  0.00  0.00    +0.073 S 
ATOM      3  O   UNL     1     -32.977  -8.960  16.013  0.00  0.00    -0.150 OA
ENDROOT
BRANCH   2   4
ATOM      4  C   UNL     1     -31.335  -9.867  17.912  0.00  0.00    +0.118 A 
ATOM      5  C   UNL     1     -31.951  -8.936  18.762  0.00  0.00    +0.032 A 
ATOM      6  C   UNL     1     -31.514  -8.768  20.076  0.00  0.00    +0.042 A 
ATOM      7  C   UNL     1     -30.452  -9.527  20.567  0.00  0.00    +0.149 A 
ATOM      8  F   UNL     1     -30.036  -9.347  21.845  0.00  0.00    -0.203 F 
ATOM      9  C   UNL     1     -29.824 -10.467  19.744  0.00  0.00    +0.108 A 
ATOM     10  N   UNL     1     -28.787 -11.201  20.233  0.00  0.00    -0.252 NA
ATOM     11  C   UNL     1     -28.143 -12.127  19.479  0.00  0.00    +0.111 A 
ATOM     12  C   UNL     1     -28.542 -12.356  18.163  0.00  0.00    +0.020 A 
ATOM     13  C   UNL     1     -29.602 -11.626  17.629  0.00  0.00    +0.013 A 
ATOM     14  C   UNL     1     -30.263 -10.655  18.408  0.00  0.00    +0.030 A 
ENDBRANCH   2   4
BRANCH   2  15
ATOM     15  N   UNL     1     -32.520 -11.567  15.922  0.00  0.00    -0.216 N 
ATOM     16  H   UNL     1     -32.544 -12.236  16.724  0.00  0.00    +0.174 HD
BRANCH  15  17
ATOM     17  C   UNL     1     -32.751 -12.055  14.592  0.00  0.00    +0.059 A 
ATOM     18  C   UNL     1     -33.892 -11.680  13.843  0.00  0.00    +0.025 A 
ATOM     19  C   UNL     1     -34.083 -12.165  12.529  0.00  0.00    +0.004 A 
ATOM     20  C   UNL     1     -33.142 -13.032  11.943  0.00  0.00    +0.028 A 
ATOM     21  C   UNL     1     -32.034 -13.389  12.706  0.00  0.00    +0.068 A 
ATOM     22  N   UNL     1     -31.007 -14.179  12.360  0.00  0.00    -0.277 N 
ATOM     23  N   UNL     1     -30.156 -14.233  13.379  0.00  0.00    -0.181 NA
ATOM     24  C   UNL     1     -30.646 -13.469  14.387  0.00  0.00    +0.144 A 
ATOM     25  C   UNL     1     -31.846 -12.925  13.977  0.00  0.00    +0.042 A 
ATOM     26  H   UNL     1     -30.872 -14.672  11.449  0.00  0.00    +0.189 HD
ENDBRANCH  15  17
ENDBRANCH   2  15
TORSDOF 3
ENDMDL
MODEL 8
REMARK VINA RESULT:    -4.452      2.428      5.599
REMARK INTER + INTRA:          -5.921
REMARK INTER:                  -5.570
REMARK INTRA:                  -0.351
REMARK UNBOUND:                -0.688
REMARK  Name = 
REMARK  3 active torsions:
REMARK  status: ('A' for Active; 'I' for Inactive)
REMARK    1  A    between atoms: S_2  and  N_4
REMARK    2  A    between atoms: S_2  and  C_14
REMARK    3  A    between atoms: N_4  and  C_5
REMARK                            x       y       z     vdW  Elec       q    Type
REMARK                         _______ _______ _______ _____ _____    ______ ____
ROOT
ATOM      1  O   UNL     1     -32.775 -13.187  18.493  0.00  0.00    -0.150 OA
ATOM      2  S   UNL     1     -32.553 -11.866  17.810  0.00  0.00    +0.073 S 
ATOM      3  O   UNL     1     -33.766 -11.003  18.020  0.00  0.00    -0.150 OA
ENDROOT
BRANCH   2   4
ATOM      4  C   UNL     1     -32.305 -12.088  16.067  0.00  0.00    +0.118 A 
ATOM      5  C   UNL     1     -33.089 -11.336  15.178  0.00  0.00    +0.032 A 
ATOM      6  C   UNL     1     -32.972 -11.511  13.799  0.00  0.00    +0.042 A 
ATOM      7  C   UNL     1     -32.071 -12.441  13.281  0.00  0.00    +0.149 A 
ATOM      8  F   UNL     1     -31.975 -12.603  11.938  0.00  0.00    -0.203 F 
ATOM      9  C   UNL     1     -31.274 -13.199  14.144  0.00  0.00    +0.108 A 
ATOM     10  N   UNL     1     -30.399 -14.106  13.627  0.00  0.00    -0.252 NA
ATOM     11  C   UNL     1     -29.601 -14.866  14.418  0.00  0.00    +0.111 A 
ATOM     12  C   UNL     1     -29.655 -14.727  15.804  0.00  0.00    +0.020 A 
ATOM     13  C   UNL     1     -30.537 -13.807  16.369  0.00  0.00    +0.013 A 
ATOM     14  C   UNL     1     -31.375 -13.027  15.548  0.00  0.00    +0.030 A 
ENDBRANCH   2   4
BRANCH   2  15
ATOM     15  N   UNL     1     -31.166 -11.098  18.513  0.00  0.00    -0.216 N 
ATOM     16  H   UNL     1     -30.981 -10.107  18.240  0.00  0.00    +0.174 HD
BRANCH  15  17
ATOM     17  C   UNL     1     -30.158 -11.834  19.222  0.00  0.00    +0.059 A 
ATOM     18  C   UNL     1     -30.484 -12.763  20.238  0.00  0.00    +0.025 A 
ATOM     19  C   UNL     1     -29.468 -13.484  20.907  0.00  0.00    +0.004 A 
ATOM     20  C   UNL     1     -28.115 -13.287  20.576  0.00  0.00    +0.028 A 
ATOM     21  C   UNL     1     -27.825 -12.361  19.578  0.00  0.00    +0.068 A 
ATOM     22  N   UNL     1     -26.625 -12.019  19.085  0.00  0.00    -0.277 N 
ATOM     23  N   UNL     1     -26.807 -11.115  18.128  0.00  0.00    -0.181 NA
ATOM     24  C   UNL     1     -28.136 -10.877  18.010  0.00  0.00    +0.144 A 
ATOM     25  C   UNL     1     -28.802 -11.661  18.930  0.00  0.00    +0.042 A 
ATOM     26  H   UNL     1     -25.695 -12.392  19.380  0.00  0.00    +0.189 HD
ENDBRANCH  15  17
ENDBRANCH   2  15
TORSDOF 3
ENDMDL
MODEL 9
REMARK VINA RESULT:    -4.278      3.318      6.103
REMARK INTER + INTRA:          -5.716
REMARK INTER:                  -5.391
REMARK INTRA:                  -0.325
REMARK UNBOUND:                -0.688
REMARK  Name = 
REMARK  3 active torsions:
REMARK  status: ('A' for Active; 'I' for Inactive)
REMARK    1  A    between atoms: S_2  and  N_4
REMARK    2  A    between atoms: S_2  and  C_14
REMARK    3  A    between atoms: N_4  and  C_5
REMARK                            x       y       z     vdW  Elec       q    Type
REMARK                         _______ _______ _______ _____ _____    ______ ____
ROOT
ATOM      1  O   UNL     1     -29.419 -12.898  17.881  0.00  0.00    -0.150 OA
ATOM      2  S   UNL     1     -30.828 -13.345  17.606  0.00  0.00    +0.073 S 
ATOM      3  O   UNL     1     -30.946 -14.806  17.940  0.00  0.00    -0.150 OA
ENDROOT
BRANCH   2   4
ATOM      4  C   UNL     1     -31.243 -13.114  15.897  0.00  0.00    +0.118 A 
ATOM      5  C   UNL     1     -32.375 -12.347  15.580  0.00  0.00    +0.032 A 
ATOM      6  C   UNL     1     -32.777 -12.179  14.255  0.00  0.00    +0.042 A 
ATOM      7  C   UNL     1     -32.058 -12.775  13.220  0.00  0.00    +0.149 A 
ATOM      8  F   UNL     1     -32.466 -12.607  11.938  0.00  0.00    -0.203 F 
ATOM      9  C   UNL     1     -30.923 -13.540  13.507  0.00  0.00    +0.108 A 
ATOM     10  N   UNL     1     -30.229 -14.120  12.488  0.00  0.00    -0.252 NA
ATOM     11  C   UNL     1     -29.121 -14.871  12.710  0.00  0.00    +0.111 A 
ATOM     12  C   UNL     1     -28.655 -15.062  14.009  0.00  0.00    +0.020 A 
ATOM     13  C   UNL     1     -29.338 -14.482  15.077  0.00  0.00    +0.013 A 
ATOM     14  C   UNL     1     -30.496 -13.713  14.848  0.00  0.00    +0.030 A 
ENDBRANCH   2   4
BRANCH   2  15
ATOM     15  N   UNL     1     -31.911 -12.432  18.607  0.00  0.00    -0.216 N 
ATOM     16  H   UNL     1     -32.866 -12.826  18.760  0.00  0.00    +0.174 HD
BRANCH  15  17
ATOM     17  C   UNL     1     -31.636 -11.079  19.000  0.00  0.00    +0.059 A 
ATOM     18  C   UNL     1     -32.158  -9.971  18.291  0.00  0.00    +0.025 A 
ATOM     19  C   UNL     1     -31.882  -8.650  18.714  0.00  0.00    +0.004 A 
ATOM     20  C   UNL     1     -31.081  -8.415  19.846  0.00  0.00    +0.028 A 
ATOM     21  C   UNL     1     -30.576  -9.524  20.519  0.00  0.00    +0.068 A 
ATOM     22  N   UNL     1     -29.811  -9.549  21.621  0.00  0.00    -0.277 N 
ATOM     23  N   UNL     1     -29.577 -10.817  21.939  0.00  0.00    -0.181 NA
ATOM     24  C   UNL     1     -30.197 -11.610  21.030  0.00  0.00    +0.144 A 
ATOM     25  C   UNL     1     -30.838 -10.801  20.113  0.00  0.00    +0.042 A 
ATOM     26  H   UNL     1     -29.456  -8.727  22.158  0.00  0.00    +0.189 HD
ENDBRANCH  15  17
ENDBRANCH   2  15
TORSDOF 3
ENDMDL
