MODEL 1
REMARK VINA RESULT:    -3.865      0.000      0.000
REMARK INTER + INTRA:          -7.585
REMARK INTER:                  -5.220
REMARK INTRA:                  -2.364
REMARK UNBOUND:                -2.364
REMARK  Name = 
REMARK  6 active torsions:
REMARK  status: ('A' for Active; 'I' for Inactive)
REMARK    1  A    between atoms: C_2  and  C_3
REMARK    2  A    between atoms: C_6  and  S_10
REMARK    3  A    between atoms: S_10  and  N_13
REMARK    4  A    between atoms: N_13  and  C_14
REMARK    5  A    between atoms: C_14  and  C_15
REMARK    6  A    between atoms: C_15  and  C_16
REMARK                            x       y       z     vdW  Elec       q    Type
REMARK                         _______ _______ _______ _____ _____    ______ ____
ROOT
ATOM      1  S   UNL     1     -28.602 -13.055  17.647  0.00  0.00    +0.058 S 
ATOM      2  O   UNL     1     -27.347 -12.262  17.880  0.00  0.00    -0.153 OA
ATOM      3  O   UNL     1     -28.364 -14.000  16.501  0.00  0.00    -0.153 OA
ENDROOT
BRANCH   1   7
ATOM      4  C   UNL     1     -32.006 -10.196  16.588  0.00  0.00    +0.070 A 
ATOM      5  C   UNL     1     -30.752  -9.689  16.951  0.00  0.00    +0.022 A 
ATOM      6  C   UNL     1     -29.710 -10.560  17.284  0.00  0.00    +0.030 A 
ATOM      7  C   UNL     1     -29.915 -11.946  17.259  0.00  0.00    +0.107 A 
ATOM      8  C   UNL     1     -31.166 -12.454  16.890  0.00  0.00    +0.049 A 
ATOM      9  C   UNL     1     -32.214 -11.587  16.556  0.00  0.00    +0.060 A 
ATOM     10 CL   UNL     1     -33.769 -12.273  16.100  0.00  0.00    -0.082 Cl
BRANCH   4  12
ATOM     11  N   UNL     1     -33.915  -8.543  15.974  0.00  0.00    -0.191 NA
ATOM     12  C   UNL     1     -33.066  -9.278  16.247  0.00  0.00    +0.101 C 
ENDBRANCH   4  12
ENDBRANCH   1   7
BRANCH   1  13
ATOM     13  N   UNL     1     -28.989 -13.955  19.082  0.00  0.00    -0.190 NA
ATOM     14  H   UNL     1     -29.934 -13.632  19.391  0.00  0.00    +0.148 HD
BRANCH  13  15
ATOM     15  C   UNL     1     -28.028 -13.635  20.140  0.00  0.00    +0.112 C 
BRANCH  15  16
ATOM     16  C   UNL     1     -28.771 -13.283  21.429  0.00  0.00    +0.072 C 
BRANCH  16  17
ATOM     17  C   UNL     1     -29.866 -12.296  21.155  0.00  0.00    +0.043 A 
ATOM     18  C   UNL     1     -29.631 -10.916  21.266  0.00  0.00    +0.023 A 
ATOM     19  C   UNL     1     -30.661 -10.021  20.970  0.00  0.00    +0.003 A 
ATOM     20  C   UNL     1     -31.906 -10.503  20.561  0.00  0.00    +0.020 A 
ATOM     21  C   UNL     1     -32.101 -11.882  20.449  0.00  0.00    +0.111 A 
ATOM     22  N   UNL     1     -31.086 -12.739  20.741  0.00  0.00    -0.260 NA
ENDBRANCH  16  17
ENDBRANCH  15  16
ENDBRANCH  13  15
ENDBRANCH   1  13
TORSDOF 6
ENDMDL
MODEL 2
REMARK VINA RESULT:    -3.814      3.083      5.921
REMARK INTER + INTRA:          -7.516
REMARK INTER:                  -5.158
REMARK INTRA:                  -2.358
REMARK UNBOUND:                -2.364
REMARK  Name = 
REMARK  6 active torsions:
REMARK  status: ('A' for Active; 'I' for Inactive)
REMARK    1  A    between atoms: C_2  and  C_3
REMARK    2  A    between atoms: C_6  and  S_10
REMARK    3  A    between atoms: S_10  and  N_13
REMARK    4  A    between atoms: N_13  and  C_14
REMARK    5  A    between atoms: C_14  and  C_15
REMARK    6  A    between atoms: C_15  and  C_16
REMARK                            x       y       z     vdW  Elec       q    Type
REMARK                         _______ _______ _______ _____ _____    ______ ____
ROOT
ATOM      1  S   UNL     1     -31.103  -9.799  17.599  0.00  0.00    +0.058 S 
ATOM      2  O   UNL     1     -30.076  -9.413  16.573  0.00  0.00    -0.153 OA
ATOM      3  O   UNL     1     -31.527  -8.561  18.341  0.00  0.00    -0.153 OA
ENDROOT
BRANCH   1   7
ATOM      4  C   UNL     1     -29.241 -12.854  20.443  0.00  0.00    +0.070 A 
ATOM      5  C   UNL     1     -30.613 -12.578  20.509  0.00  0.00    +0.022 A 
ATOM      6  C   UNL     1     -31.186 -11.639  19.647  0.00  0.00    +0.030 A 
ATOM      7  C   UNL     1     -30.390 -10.964  18.712  0.00  0.00    +0.107 A 
ATOM      8  C   UNL     1     -29.020 -11.242  18.640  0.00  0.00    +0.049 A 
ATOM      9  C   UNL     1     -28.440 -12.182  19.502  0.00  0.00    +0.060 A 
ATOM     10 CL   UNL     1     -26.713 -12.497  19.374  0.00  0.00    -0.082 Cl
BRANCH   4  12
ATOM     11  N   UNL     1     -28.218 -14.610  22.062  0.00  0.00    -0.191 NA
ATOM     12  C   UNL     1     -28.673 -13.828  21.342  0.00  0.00    +0.101 C 
ENDBRANCH   4  12
ENDBRANCH   1   7
BRANCH   1  13
ATOM     13  N   UNL     1     -32.476 -10.505  16.800  0.00  0.00    -0.190 NA
ATOM     14  H   UNL     1     -32.460 -11.526  17.025  0.00  0.00    +0.148 HD
BRANCH  13  15
ATOM     15  C   UNL     1     -32.333 -10.355  15.350  0.00  0.00    +0.112 C 
BRANCH  15  16
ATOM     16  C   UNL     1     -32.445 -11.721  14.672  0.00  0.00    +0.072 C 
BRANCH  16  17
ATOM     17  C   UNL     1     -31.721 -12.767  15.469  0.00  0.00    +0.043 A 
ATOM     18  C   UNL     1     -30.372 -13.057  15.211  0.00  0.00    +0.023 A 
ATOM     19  C   UNL     1     -29.716 -14.011  15.992  0.00  0.00    +0.003 A 
ATOM     20  C   UNL     1     -30.402 -14.657  17.023  0.00  0.00    +0.020 A 
ATOM     21  C   UNL     1     -31.741 -14.334  17.259  0.00  0.00    +0.111 A 
ATOM     22  N   UNL     1     -32.363 -13.403  16.488  0.00  0.00    -0.260 NA
ENDBRANCH  16  17
ENDBRANCH  15  16
ENDBRANCH  13  15
ENDBRANCH   1  13
TORSDOF 6
ENDMDL
MODEL 3
REMARK VINA RESULT:    -3.773      2.857      3.900
REMARK INTER + INTRA:          -7.461
REMARK INTER:                  -5.307
REMARK INTRA:                  -2.154
REMARK UNBOUND:                -2.364
REMARK  Name = 
REMARK  6 active torsions:
REMARK  status: ('A' for Active; 'I' for Inactive)
REMARK    1  A    between atoms: C_2  and  C_3
REMARK    2  A    between atoms: C_6  and  S_10
REMARK    3  A    between atoms: S_10  and  N_13
REMARK    4  A    between atoms: N_13  and  C_14
REMARK    5  A    between atoms: C_14  and  C_15
REMARK    6  A    between atoms: C_15  and  C_16
REMARK                            x       y       z     vdW  Elec       q    Type
REMARK                         _______ _______ _______ _____ _____    ______ ____
ROOT
ATOM      1  S   UNL     1     -30.537  -9.446  19.950  0.00  0.00    +0.058 S 
ATOM      2  O   UNL     1     -31.601  -9.695  20.982  0.00  0.00    -0.153 OA
ATOM      3  O   UNL     1     -30.191  -7.982  19.964  0.00  0.00    -0.153 OA
ENDROOT
BRANCH   1   7
ATOM      4  C   UNL     1     -32.146 -10.709  15.864  0.00  0.00    +0.070 A 
ATOM      5  C   UNL     1     -30.823 -10.266  15.991  0.00  0.00    +0.022 A 
ATOM      6  C   UNL     1     -30.329  -9.871  17.237  0.00  0.00    +0.030 A 
ATOM      7  C   UNL     1     -31.155  -9.912  18.368  0.00  0.00    +0.107 A 
ATOM      8  C   UNL     1     -32.476 -10.361  18.244  0.00  0.00    +0.049 A 
ATOM      9  C   UNL     1     -32.977 -10.757  16.998  0.00  0.00    +0.060 A 
ATOM     10 CL   UNL     1     -34.644 -11.313  16.892  0.00  0.00    -0.082 Cl
BRANCH   4  12
ATOM     11  N   UNL     1     -33.024 -11.437  13.528  0.00  0.00    -0.191 NA
ATOM     12  C   UNL     1     -32.633 -11.113  14.568  0.00  0.00    +0.101 C 
ENDBRANCH   4  12
ENDBRANCH   1   7
BRANCH   1  13
ATOM     13  N   UNL     1     -29.129 -10.388  20.339  0.00  0.00    -0.190 NA
ATOM     14  H   UNL     1     -28.448 -10.243  19.558  0.00  0.00    +0.148 HD
BRANCH  13  15
ATOM     15  C   UNL     1     -29.481 -11.809  20.379  0.00  0.00    +0.112 C 
BRANCH  15  16
ATOM     16  C   UNL     1     -28.487 -12.615  19.543  0.00  0.00    +0.072 C 
BRANCH  16  17
ATOM     17  C   UNL     1     -29.180 -13.268  18.383  0.00  0.00    +0.043 A 
ATOM     18  C   UNL     1     -30.521 -13.669  18.484  0.00  0.00    +0.023 A 
ATOM     19  C   UNL     1     -31.149 -14.242  17.376  0.00  0.00    +0.003 A 
ATOM     20  C   UNL     1     -30.443 -14.402  16.182  0.00  0.00    +0.020 A 
ATOM     21  C   UNL     1     -29.112 -13.981  16.114  0.00  0.00    +0.111 A 
ATOM     22  N   UNL     1     -28.517 -13.424  17.203  0.00  0.00    -0.260 NA
ENDBRANCH  16  17
ENDBRANCH  15  16
ENDBRANCH  13  15
ENDBRANCH   1  13
TORSDOF 6
ENDMDL
MODEL 4
REMARK VINA RESULT:    -3.655      3.282      5.786
REMARK INTER + INTRA:          -7.301
REMARK INTER:                  -5.029
REMARK INTRA:                  -2.272
REMARK UNBOUND:                -2.364
REMARK  Name = 
REMARK  6 active torsions:
REMARK  status: ('A' for Active; 'I' for Inactive)
REMARK    1  A    between atoms: C_2  and  C_3
REMARK    2  A    between atoms: C_6  and  S_10
REMARK    3  A    between atoms: S_10  and  N_13
REMARK    4  A    between atoms: N_13  and  C_14
REMARK    5  A    between atoms: C_14  and  C_15
REMARK    6  A    between atoms: C_15  and  C_16
REMARK                            x       y       z     vdW  Elec       q    Type
REMARK                         _______ _______ _______ _____ _____    ______ ____
ROOT
ATOM      1  S   UNL     1     -32.315  -9.135  18.142  0.00  0.00    +0.058 S 
ATOM      2  O   UNL     1     -32.098  -7.795  18.785  0.00  0.00    -0.153 OA
ATOM      3  O   UNL     1     -33.553  -9.754  18.733  0.00  0.00    -0.153 OA
ENDROOT
BRANCH   1   7
ATOM      4  C   UNL     1     -28.678 -11.760  19.018  0.00  0.00    +0.070 A 
ATOM      5  C   UNL     1     -28.590 -10.731  18.070  0.00  0.00    +0.022 A 
ATOM      6  C   UNL     1     -29.702  -9.931  17.793  0.00  0.00    +0.030 A 
ATOM      7  C   UNL     1     -30.914 -10.155  18.459  0.00  0.00    +0.107 A 
ATOM      8  C   UNL     1     -31.002 -11.178  19.411  0.00  0.00    +0.049 A 
ATOM      9  C   UNL     1     -29.891 -11.984  19.693  0.00  0.00    +0.060 A 
ATOM     10 CL   UNL     1     -30.051 -13.258  20.896  0.00  0.00    -0.082 Cl
BRANCH   4  12
ATOM     11  N   UNL     1     -26.585 -13.221  19.504  0.00  0.00    -0.191 NA
ATOM     12  C   UNL     1     -27.516 -12.571  19.288  0.00  0.00    +0.101 C 
ENDBRANCH   4  12
ENDBRANCH   1   7
BRANCH   1  13
ATOM     13  N   UNL     1     -32.522  -8.925  16.430  0.00  0.00    -0.190 NA
ATOM     14  H   UNL     1     -33.050  -8.032  16.300  0.00  0.00    +0.148 HD
BRANCH  13  15
ATOM     15  C   UNL     1     -33.335 -10.018  15.892  0.00  0.00    +0.112 C 
BRANCH  15  16
ATOM     16  C   UNL     1     -32.507 -10.848  14.910  0.00  0.00    +0.072 C 
BRANCH  16  17
ATOM     17  C   UNL     1     -32.005 -12.099  15.567  0.00  0.00    +0.043 A 
ATOM     18  C   UNL     1     -30.756 -12.639  15.220  0.00  0.00    +0.023 A 
ATOM     19  C   UNL     1     -30.300 -13.785  15.875  0.00  0.00    +0.003 A 
ATOM     20  C   UNL     1     -31.083 -14.376  16.869  0.00  0.00    +0.020 A 
ATOM     21  C   UNL     1     -32.316 -13.805  17.197  0.00  0.00    +0.111 A 
ATOM     22  N   UNL     1     -32.743 -12.688  16.549  0.00  0.00    -0.260 NA
ENDBRANCH  16  17
ENDBRANCH  15  16
ENDBRANCH  13  15
ENDBRANCH   1  13
TORSDOF 6
ENDMDL
MODEL 5
REMARK VINA RESULT:    -3.642      2.258      3.902
REMARK INTER + INTRA:          -7.284
REMARK INTER:                  -4.972
REMARK INTRA:                  -2.312
REMARK UNBOUND:                -2.364
REMARK  Name = 
REMARK  6 active torsions:
REMARK  status: ('A' for Active; 'I' for Inactive)
REMARK    1  A    between atoms: C_2  and  C_3
REMARK    2  A    between atoms: C_6  and  S_10
REMARK    3  A    between atoms: S_10  and  N_13
REMARK    4  A    between atoms: N_13  and  C_14
REMARK    5  A    between atoms: C_14  and  C_15
REMARK    6  A    between atoms: C_15  and  C_16
REMARK                            x       y       z     vdW  Elec       q    Type
REMARK                         _______ _______ _______ _____ _____    ______ ____
ROOT
ATOM      1  S   UNL     1     -28.977 -13.329  19.027  0.00  0.00    +0.058 S 
ATOM      2  O   UNL     1     -28.685 -13.756  20.437  0.00  0.00    -0.153 OA
ATOM      3  O   UNL     1     -27.671 -13.094  18.318  0.00  0.00    -0.153 OA
ENDROOT
BRANCH   1   7
ATOM      4  C   UNL     1     -31.480  -9.506  19.093  0.00  0.00    +0.070 A 
ATOM      5  C   UNL     1     -30.257  -9.532  18.411  0.00  0.00    +0.022 A 
ATOM      6  C   UNL     1     -29.484 -10.697  18.394  0.00  0.00    +0.030 A 
ATOM      7  C   UNL     1     -29.926 -11.845  19.064  0.00  0.00    +0.107 A 
ATOM      8  C   UNL     1     -31.152 -11.823  19.741  0.00  0.00    +0.049 A 
ATOM      9  C   UNL     1     -31.930 -10.659  19.762  0.00  0.00    +0.060 A 
ATOM     10 CL   UNL     1     -33.463 -10.679  20.627  0.00  0.00    -0.082 Cl
BRANCH   4  12
ATOM     11  N   UNL     1     -32.887  -7.321  19.095  0.00  0.00    -0.191 NA
ATOM     12  C   UNL     1     -32.261  -8.294  19.095  0.00  0.00    +0.101 C 
ENDBRANCH   4  12
ENDBRANCH   1   7
BRANCH   1  13
ATOM     13  N   UNL     1     -29.867 -14.584  18.219  0.00  0.00    -0.190 NA
ATOM     14  H   UNL     1     -29.293 -15.455  18.296  0.00  0.00    +0.148 HD
BRANCH  13  15
ATOM     15  C   UNL     1     -30.009 -14.253  16.799  0.00  0.00    +0.112 C 
BRANCH  15  16
ATOM     16  C   UNL     1     -31.482 -14.319  16.394  0.00  0.00    +0.072 C 
BRANCH  16  17
ATOM     17  C   UNL     1     -32.021 -12.941  16.141  0.00  0.00    +0.043 A 
ATOM     18  C   UNL     1     -31.328 -12.041  15.317  0.00  0.00    +0.023 A 
ATOM     19  C   UNL     1     -31.873 -10.778  15.073  0.00  0.00    +0.003 A 
ATOM     20  C   UNL     1     -33.100 -10.429  15.641  0.00  0.00    +0.020 A 
ATOM     21  C   UNL     1     -33.768 -11.355  16.446  0.00  0.00    +0.111 A 
ATOM     22  N   UNL     1     -33.222 -12.579  16.672  0.00  0.00    -0.260 NA
ENDBRANCH  16  17
ENDBRANCH  15  16
ENDBRANCH  13  15
ENDBRANCH   1  13
TORSDOF 6
ENDMDL
MODEL 6
REMARK VINA RESULT:    -3.634      3.771      5.049
REMARK INTER + INTRA:          -7.273
REMARK INTER:                  -4.853
REMARK INTRA:                  -2.420
REMARK UNBOUND:                -2.364
REMARK  Name = 
REMARK  6 active torsions:
REMARK  status: ('A' for Active; 'I' for Inactive)
REMARK    1  A    between atoms: C_2  and  C_3
REMARK    2  A    between atoms: C_6  and  S_10
REMARK    3  A    between atoms: S_10  and  N_13
REMARK    4  A    between atoms: N_13  and  C_14
REMARK    5  A    between atoms: C_14  and  C_15
REMARK    6  A    between atoms: C_15  and  C_16
REMARK                            x       y       z     vdW  Elec       q    Type
REMARK                         _______ _______ _______ _____ _____    ______ ____
ROOT
ATOM      1  S   UNL     1     -32.488 -12.846  12.909  0.00  0.00    +0.058 S 
ATOM      2  O   UNL     1     -31.639 -12.076  11.938  0.00  0.00    -0.153 OA
ATOM      3  O   UNL     1     -33.823 -13.114  12.269  0.00  0.00    -0.153 OA
ENDROOT
BRANCH   1   7
ATOM      4  C   UNL     1     -32.990 -10.389  16.730  0.00  0.00    +0.070 A 
ATOM      5  C   UNL     1     -34.067 -11.128  16.225  0.00  0.00    +0.022 A 
ATOM      6  C   UNL     1     -33.921 -11.875  15.053  0.00  0.00    +0.030 A 
ATOM      7  C   UNL     1     -32.696 -11.885  14.372  0.00  0.00    +0.107 A 
ATOM      8  C   UNL     1     -31.616 -11.152  14.879  0.00  0.00    +0.049 A 
ATOM      9  C   UNL     1     -31.757 -10.402  16.053  0.00  0.00    +0.060 A 
ATOM     10 CL   UNL     1     -30.371  -9.495  16.651  0.00  0.00    -0.082 Cl
BRANCH   4  12
ATOM     11  N   UNL     1     -33.304  -9.017  18.915  0.00  0.00    -0.191 NA
ATOM     12  C   UNL     1     -33.164  -9.628  17.943  0.00  0.00    +0.101 C 
ENDBRANCH   4  12
ENDBRANCH   1   7
BRANCH   1  13
ATOM     13  N   UNL     1     -31.706 -14.349  13.292  0.00  0.00    -0.190 NA
ATOM     14  H   UNL     1     -31.915 -14.548  14.297  0.00  0.00    +0.148 HD
BRANCH  13  15
ATOM     15  C   UNL     1     -30.256 -14.202  13.147  0.00  0.00    +0.112 C 
BRANCH  15  16
ATOM     16  C   UNL     1     -29.540 -14.988  14.247  0.00  0.00    +0.072 C 
BRANCH  16  17
ATOM     17  C   UNL     1     -29.976 -14.514  15.603  0.00  0.00    +0.043 A 
ATOM     18  C   UNL     1     -29.104 -13.774  16.417  0.00  0.00    +0.023 A 
ATOM     19  C   UNL     1     -29.550 -13.317  17.659  0.00  0.00    +0.003 A 
ATOM     20  C   UNL     1     -30.855 -13.594  18.074  0.00  0.00    +0.020 A 
ATOM     21  C   UNL     1     -31.699 -14.324  17.233  0.00  0.00    +0.111 A 
ATOM     22  N   UNL     1     -31.247 -14.759  16.026  0.00  0.00    -0.260 NA
ENDBRANCH  16  17
ENDBRANCH  15  16
ENDBRANCH  13  15
ENDBRANCH   1  13
TORSDOF 6
ENDMDL
MODEL 7
REMARK VINA RESULT:    -3.471      1.746      2.198
REMARK INTER + INTRA:          -7.052
REMARK INTER:                  -4.836
REMARK INTRA:                  -2.216
REMARK UNBOUND:                -2.364
REMARK  Name = 
REMARK  6 active torsions:
REMARK  status: ('A' for Active; 'I' for Inactive)
REMARK    1  A    between atoms: C_2  and  C_3
REMARK    2  A    between atoms: C_6  and  S_10
REMARK    3  A    between atoms: S_10  and  N_13
REMARK    4  A    between atoms: N_13  and  C_14
REMARK    5  A    between atoms: C_14  and  C_15
REMARK    6  A    between atoms: C_15  and  C_16
REMARK                            x       y       z     vdW  Elec       q    Type
REMARK                         _______ _______ _______ _____ _____    ______ ____
ROOT
ATOM      1  S   UNL     1     -27.557 -12.062  19.015  0.00  0.00    +0.058 S 
ATOM      2  O   UNL     1     -26.327 -11.323  18.571  0.00  0.00    -0.153 OA
ATOM      3  O   UNL     1     -27.276 -13.539  18.952  0.00  0.00    -0.153 OA
ENDROOT
BRANCH   1   7
ATOM      4  C   UNL     1     -30.988 -11.009  16.185  0.00  0.00    +0.070 A 
ATOM      5  C   UNL     1     -30.303  -9.994  16.866  0.00  0.00    +0.022 A 
ATOM      6  C   UNL     1     -29.258 -10.312  17.738  0.00  0.00    +0.030 A 
ATOM      7  C   UNL     1     -28.892 -11.649  17.941  0.00  0.00    +0.107 A 
ATOM      8  C   UNL     1     -29.571 -12.664  17.257  0.00  0.00    +0.049 A 
ATOM      9  C   UNL     1     -30.619 -12.352  16.382  0.00  0.00    +0.060 A 
ATOM     10 CL   UNL     1     -31.444 -13.663  15.545  0.00  0.00    -0.082 Cl
BRANCH   4  12
ATOM     11  N   UNL     1     -32.922 -10.374  14.570  0.00  0.00    -0.191 NA
ATOM     12  C   UNL     1     -32.061 -10.656  15.289  0.00  0.00    +0.101 C 
ENDBRANCH   4  12
ENDBRANCH   1   7
BRANCH   1  13
ATOM     13  N   UNL     1     -27.944 -11.606  20.647  0.00  0.00    -0.190 NA
ATOM     14  H   UNL     1     -27.123 -11.875  21.235  0.00  0.00    +0.148 HD
BRANCH  13  15
ATOM     15  C   UNL     1     -29.107 -12.367  21.109  0.00  0.00    +0.112 C 
BRANCH  15  16
ATOM     16  C   UNL     1     -30.096 -11.434  21.808  0.00  0.00    +0.072 C 
BRANCH  16  17
ATOM     17  C   UNL     1     -31.231 -11.084  20.891  0.00  0.00    +0.043 A 
ATOM     18  C   UNL     1     -31.951 -12.090  20.227  0.00  0.00    +0.023 A 
ATOM     19  C   UNL     1     -33.024 -11.735  19.408  0.00  0.00    +0.003 A 
ATOM     20  C   UNL     1     -33.374 -10.391  19.263  0.00  0.00    +0.020 A 
ATOM     21  C   UNL     1     -32.643  -9.417  19.948  0.00  0.00    +0.111 A 
ATOM     22  N   UNL     1     -31.601  -9.782  20.743  0.00  0.00    -0.260 NA
ENDBRANCH  16  17
ENDBRANCH  15  16
ENDBRANCH  13  15
ENDBRANCH   1  13
TORSDOF 6
ENDMDL
MODEL 8
REMARK VINA RESULT:    -3.415      3.455      4.793
REMARK INTER + INTRA:          -6.977
REMARK INTER:                  -4.663
REMARK INTRA:                  -2.314
REMARK UNBOUND:                -2.364
REMARK  Name = 
REMARK  6 active torsions:
REMARK  status: ('A' for Active; 'I' for Inactive)
REMARK    1  A    between atoms: C_2  and  C_3
REMARK    2  A    between atoms: C_6  and  S_10
REMARK    3  A    between atoms: S_10  and  N_13
REMARK    4  A    between atoms: N_13  and  C_14
REMARK    5  A    between atoms: C_14  and  C_15
REMARK    6  A    between atoms: C_15  and  C_16
REMARK                            x       y       z     vdW  Elec       q    Type
REMARK                         _______ _______ _______ _____ _____    ______ ____
ROOT
ATOM      1  S   UNL     1     -33.254  -9.355  17.261  0.00  0.00    +0.058 S 
ATOM      2  O   UNL     1     -34.225  -9.818  18.310  0.00  0.00    -0.153 OA
ATOM      3  O   UNL     1     -34.006  -8.553  16.234  0.00  0.00    -0.153 OA
ENDROOT
BRANCH   1   7
ATOM      4  C   UNL     1     -31.284 -13.009  15.351  0.00  0.00    +0.070 A 
ATOM      5  C   UNL     1     -31.352 -11.800  14.647  0.00  0.00    +0.022 A 
ATOM      6  C   UNL     1     -31.960 -10.682  15.224  0.00  0.00    +0.030 A 
ATOM      7  C   UNL     1     -32.511 -10.764  16.510  0.00  0.00    +0.107 A 
ATOM      8  C   UNL     1     -32.439 -11.971  17.217  0.00  0.00    +0.049 A 
ATOM      9  C   UNL     1     -31.831 -13.095  16.644  0.00  0.00    +0.060 A 
ATOM     10 CL   UNL     1     -31.765 -14.589  17.572  0.00  0.00    -0.082 Cl
BRANCH   4  12
ATOM     11  N   UNL     1     -30.141 -15.062  14.241  0.00  0.00    -0.191 NA
ATOM     12  C   UNL     1     -30.650 -14.149  14.735  0.00  0.00    +0.101 C 
ENDBRANCH   4  12
ENDBRANCH   1   7
BRANCH   1  13
ATOM     13  N   UNL     1     -32.034  -8.365  18.004  0.00  0.00    -0.190 NA
ATOM     14  H   UNL     1     -31.114  -8.812  17.788  0.00  0.00    +0.148 HD
BRANCH  13  15
ATOM     15  C   UNL     1     -32.214  -8.368  19.458  0.00  0.00    +0.112 C 
BRANCH  15  16
ATOM     16  C   UNL     1     -30.856  -8.502  20.149  0.00  0.00    +0.072 C 
BRANCH  16  17
ATOM     17  C   UNL     1     -30.107  -9.688  19.616  0.00  0.00    +0.043 A 
ATOM     18  C   UNL     1     -30.116 -10.910  20.307  0.00  0.00    +0.023 A 
ATOM     19  C   UNL     1     -29.438 -12.005  19.769  0.00  0.00    +0.003 A 
ATOM     20  C   UNL     1     -28.768 -11.878  18.550  0.00  0.00    +0.020 A 
ATOM     21  C   UNL     1     -28.790 -10.650  17.884  0.00  0.00    +0.111 A 
ATOM     22  N   UNL     1     -29.456  -9.594  18.423  0.00  0.00    -0.260 NA
ENDBRANCH  16  17
ENDBRANCH  15  16
ENDBRANCH  13  15
ENDBRANCH   1  13
TORSDOF 6
ENDMDL
MODEL 9
REMARK VINA RESULT:    -3.402      3.007      4.274
REMARK INTER + INTRA:          -6.959
REMARK INTER:                  -6.454
REMARK INTRA:                  -0.505
REMARK UNBOUND:                -2.364
REMARK  Name = 
REMARK  6 active torsions:
REMARK  status: ('A' for Active; 'I' for Inactive)
REMARK    1  A    between atoms: C_2  and  C_3
REMARK    2  A    between atoms: C_6  and  S_10
REMARK    3  A    between atoms: S_10  and  N_13
REMARK    4  A    between atoms: N_13  and  C_14
REMARK    5  A    between atoms: C_14  and  C_15
REMARK    6  A    between atoms: C_15  and  C_16
REMARK                            x       y       z     vdW  Elec       q    Type
REMARK                         _______ _______ _______ _____ _____    ______ ____
ROOT
ATOM      1  S   UNL     1     -30.812 -10.355  17.752  0.00  0.00    +0.058 S 
ATOM      2  O   UNL     1     -31.195 -11.199  18.935  0.00  0.00    -0.153 OA
ATOM      3  O   UNL     1     -31.283  -8.947  17.999  0.00  0.00    -0.153 OA
ENDROOT
BRANCH   1   7
ATOM      4  C   UNL     1     -32.854 -12.064  14.038  0.00  0.00    +0.070 A 
ATOM      5  C   UNL     1     -31.780 -12.746  14.625  0.00  0.00    +0.022 A 
ATOM      6  C   UNL     1     -31.148 -12.223  15.757  0.00  0.00    +0.030 A 
ATOM      7  C   UNL     1     -31.581 -11.011  16.309  0.00  0.00    +0.107 A 
ATOM      8  C   UNL     1     -32.658 -10.331  15.727  0.00  0.00    +0.049 A 
ATOM      9  C   UNL     1     -33.296 -10.850  14.593  0.00  0.00    +0.060 A 
ATOM     10 CL   UNL     1     -34.645  -9.959  13.897  0.00  0.00    -0.082 Cl
BRANCH   4  12
ATOM     11  N   UNL     1     -34.004 -13.074  11.938  0.00  0.00    -0.191 NA
ATOM     12  C   UNL     1     -33.492 -12.624  12.872  0.00  0.00    +0.101 C 
ENDBRANCH   4  12
ENDBRANCH   1   7
BRANCH   1  13
ATOM     13  N   UNL     1     -29.085 -10.375  17.567  0.00  0.00    -0.190 NA
ATOM     14  H   UNL     1     -28.880 -10.983  16.741  0.00  0.00    +0.148 HD
BRANCH  13  15
ATOM     15  C   UNL     1     -28.468 -10.984  18.747  0.00  0.00    +0.112 C 
BRANCH  15  16
ATOM     16  C   UNL     1     -28.032 -12.414  18.427  0.00  0.00    +0.072 C 
BRANCH  16  17
ATOM     17  C   UNL     1     -27.491 -13.088  19.653  0.00  0.00    +0.043 A 
ATOM     18  C   UNL     1     -28.338 -13.414  20.725  0.00  0.00    +0.023 A 
ATOM     19  C   UNL     1     -27.811 -14.072  21.838  0.00  0.00    +0.003 A 
ATOM     20  C   UNL     1     -26.456 -14.406  21.871  0.00  0.00    +0.020 A 
ATOM     21  C   UNL     1     -25.644 -14.077  20.782  0.00  0.00    +0.111 A 
ATOM     22  N   UNL     1     -26.175 -13.437  19.706  0.00  0.00    -0.260 NA
ENDBRANCH  16  17
ENDBRANCH  15  16
ENDBRANCH  13  15
ENDBRANCH   1  13
TORSDOF 6
ENDMDL
