MODEL 1
REMARK VINA RESULT:    -4.653      0.000      0.000
REMARK INTER + INTRA:          -7.697
REMARK INTER:                  -6.421
REMARK INTRA:                  -1.275
REMARK UNBOUND:                -1.275
REMARK  Name = 
REMARK  8 active torsions:
REMARK  status: ('A' for Active; 'I' for Inactive)
REMARK    1  A    between atoms: C_1  and  O_2
REMARK    2  A    between atoms: O_2  and  C_3
REMARK    3  A    between atoms: C_9  and  C_10
REMARK    4  A    between atoms: N_12  and  C_13
REMARK    5  A    between atoms: C_13  and  C_14
REMARK    6  A    between atoms: C_14  and  C_15
REMARK    7  A    between atoms: C_15  and  C_16
REMARK    8  A    between atoms: C_16  and  O_18
REMARK                            x       y       z     vdW  Elec       q    Type
REMARK                         _______ _______ _______ _____ _____    ______ ____
ROOT
ATOM      1  C   UNL     1     -28.907 -13.004  18.122  0.00  0.00    +0.248 C 
ATOM      2  O   UNL     1     -27.651 -13.098  18.174  0.00  0.00    -0.270 OA
ATOM      3  N   UNL     1     -29.664 -12.800  19.326  0.00  0.00    -0.311 N 
ATOM      4  H   UNL     1     -30.704 -12.904  19.297  0.00  0.00    +0.149 HD
ENDROOT
BRANCH   1  11
ATOM      5  C   UNL     1     -30.585 -12.242  16.395  0.00  0.00    +0.133 A 
ATOM      6  C   UNL     1     -31.217 -12.440  15.150  0.00  0.00    +0.061 A 
ATOM      7  C   UNL     1     -30.848 -13.509  14.329  0.00  0.00    +0.021 A 
ATOM      8 BR   UNL     1     -31.710 -13.760  12.643  0.00  0.00    -0.050 Br
ATOM      9  C   UNL     1     -29.845 -14.388  14.736  0.00  0.00    +0.016 A 
ATOM     10  C   UNL     1     -29.215 -14.209  15.968  0.00  0.00    +0.018 A 
ATOM     11  C   UNL     1     -29.588 -13.152  16.815  0.00  0.00    +0.078 A 
BRANCH   5  13
ATOM     12  C   UNL     1     -30.538  -9.797  16.943  0.00  0.00    +0.277 C 
ATOM     13  O   UNL     1     -30.904 -11.146  17.214  0.00  0.00    -0.494 OA
ENDBRANCH   5  13
ENDBRANCH   1  11
BRANCH   3  14
ATOM     14  C   UNL     1     -29.043 -12.567  20.630  0.00  0.00    +0.105 C 
BRANCH  14  15
ATOM     15  C   UNL     1     -28.614 -13.892  21.274  0.00  0.00    +0.030 C 
BRANCH  15  16
ATOM     16  C   UNL     1     -27.266 -13.801  22.006  0.00  0.00    +0.122 C 
BRANCH  16  17
ATOM     17  C   UNL     1     -26.117 -14.085  21.087  0.00  0.00    +0.305 C 
ATOM     18  O   UNL     1     -24.938 -13.828  21.450  0.00  0.00    -0.251 OA
BRANCH  17  19
ATOM     19  O   UNL     1     -26.352 -14.641  19.833  0.00  0.00    -0.481 OA
ATOM     20  H   UNL     1     -25.986 -15.554  19.594  0.00  0.00    +0.295 HD
ENDBRANCH  17  19
ENDBRANCH  16  17
ENDBRANCH  15  16
ENDBRANCH  14  15
ENDBRANCH   3  14
TORSDOF 7
ENDMDL
MODEL 2
REMARK VINA RESULT:    -4.091      2.244      3.347
REMARK INTER + INTRA:          -6.921
REMARK INTER:                  -5.194
REMARK INTRA:                  -1.727
REMARK UNBOUND:                -1.275
REMARK  Name = 
REMARK  8 active torsions:
REMARK  status: ('A' for Active; 'I' for Inactive)
REMARK    1  A    between atoms: C_1  and  O_2
REMARK    2  A    between atoms: O_2  and  C_3
REMARK    3  A    between atoms: C_9  and  C_10
REMARK    4  A    between atoms: N_12  and  C_13
REMARK    5  A    between atoms: C_13  and  C_14
REMARK    6  A    between atoms: C_14  and  C_15
REMARK    7  A    between atoms: C_15  and  C_16
REMARK    8  A    between atoms: C_16  and  O_18
REMARK                            x       y       z     vdW  Elec       q    Type
REMARK                         _______ _______ _______ _____ _____    ______ ____
ROOT
ATOM      1  C   UNL     1     -29.487 -13.459  16.831  0.00  0.00    +0.248 C 
ATOM      2  O   UNL     1     -28.315 -13.878  16.633  0.00  0.00    -0.270 OA
ATOM      3  N   UNL     1     -29.943 -13.204  18.169  0.00  0.00    -0.311 N 
ATOM      4  H   UNL     1     -30.961 -13.033  18.336  0.00  0.00    +0.149 HD
ENDROOT
BRANCH   1  11
ATOM      5  C   UNL     1     -31.435 -12.322  15.694  0.00  0.00    +0.133 A 
ATOM      6  C   UNL     1     -32.284 -12.205  14.575  0.00  0.00    +0.061 A 
ATOM      7  C   UNL     1     -32.088 -13.009  13.448  0.00  0.00    +0.021 A 
ATOM      8 BR   UNL     1     -33.243 -12.834  11.938  0.00  0.00    -0.050 Br
ATOM      9  C   UNL     1     -31.042 -13.931  13.423  0.00  0.00    +0.016 A 
ATOM     10  C   UNL     1     -30.199 -14.064  14.526  0.00  0.00    +0.018 A 
ATOM     11  C   UNL     1     -30.394 -13.279  15.675  0.00  0.00    +0.078 A 
BRANCH   5  13
ATOM     12  C   UNL     1     -31.486 -10.070  16.794  0.00  0.00    +0.277 C 
ATOM     13  O   UNL     1     -31.583 -11.491  16.817  0.00  0.00    -0.494 OA
ENDBRANCH   5  13
ENDBRANCH   1  11
BRANCH   3  14
ATOM     14  C   UNL     1     -29.069 -13.286  19.340  0.00  0.00    +0.105 C 
BRANCH  14  15
ATOM     15  C   UNL     1     -29.873 -13.099  20.634  0.00  0.00    +0.030 C 
BRANCH  15  16
ATOM     16  C   UNL     1     -30.691 -11.799  20.655  0.00  0.00    +0.122 C 
BRANCH  16  17
ATOM     17  C   UNL     1     -32.124 -12.039  20.291  0.00  0.00    +0.305 C 
ATOM     18  O   UNL     1     -33.047 -11.522  20.976  0.00  0.00    -0.251 OA
BRANCH  17  19
ATOM     19  O   UNL     1     -32.436 -12.828  19.188  0.00  0.00    -0.481 OA
ATOM     20  H   UNL     1     -31.809 -12.881  18.395  0.00  0.00    +0.295 HD
ENDBRANCH  17  19
ENDBRANCH  16  17
ENDBRANCH  15  16
ENDBRANCH  14  15
ENDBRANCH   3  14
TORSDOF 7
ENDMDL
MODEL 3
REMARK VINA RESULT:    -4.067      2.276      3.176
REMARK INTER + INTRA:          -6.888
REMARK INTER:                  -5.021
REMARK INTRA:                  -1.867
REMARK UNBOUND:                -1.275
REMARK  Name = 
REMARK  8 active torsions:
REMARK  status: ('A' for Active; 'I' for Inactive)
REMARK    1  A    between atoms: C_1  and  O_2
REMARK    2  A    between atoms: O_2  and  C_3
REMARK    3  A    between atoms: C_9  and  C_10
REMARK    4  A    between atoms: N_12  and  C_13
REMARK    5  A    between atoms: C_13  and  C_14
REMARK    6  A    between atoms: C_14  and  C_15
REMARK    7  A    between atoms: C_15  and  C_16
REMARK    8  A    between atoms: C_16  and  O_18
REMARK                            x       y       z     vdW  Elec       q    Type
REMARK                         _______ _______ _______ _____ _____    ______ ____
ROOT
ATOM      1  C   UNL     1     -29.494 -13.472  16.984  0.00  0.00    +0.248 C 
ATOM      2  O   UNL     1     -28.294 -13.826  16.831  0.00  0.00    -0.270 OA
ATOM      3  N   UNL     1     -30.020 -13.265  18.305  0.00  0.00    -0.311 N 
ATOM      4  H   UNL     1     -31.051 -13.150  18.429  0.00  0.00    +0.149 HD
ENDROOT
BRANCH   1  11
ATOM      5  C   UNL     1     -31.470 -12.445  15.794  0.00  0.00    +0.133 A 
ATOM      6  C   UNL     1     -32.274 -12.351  14.639  0.00  0.00    +0.061 A 
ATOM      7  C   UNL     1     -31.964 -13.093  13.496  0.00  0.00    +0.021 A 
ATOM      8 BR   UNL     1     -33.059 -12.950  11.938  0.00  0.00    -0.050 Br
ATOM      9  C   UNL     1     -30.850 -13.932  13.490  0.00  0.00    +0.016 A 
ATOM     10  C   UNL     1     -30.050 -14.041  14.628  0.00  0.00    +0.018 A 
ATOM     11  C   UNL     1     -30.358 -13.318  15.792  0.00  0.00    +0.078 A 
BRANCH   5  13
ATOM     12  C   UNL     1     -33.026 -11.470  17.500  0.00  0.00    +0.277 C 
ATOM     13  O   UNL     1     -31.734 -11.671  16.936  0.00  0.00    -0.494 OA
ENDBRANCH   5  13
ENDBRANCH   1  11
BRANCH   3  14
ATOM     14  C   UNL     1     -29.194 -13.323  19.512  0.00  0.00    +0.105 C 
BRANCH  14  15
ATOM     15  C   UNL     1     -28.540 -11.963  19.790  0.00  0.00    +0.030 C 
BRANCH  15  16
ATOM     16  C   UNL     1     -29.542 -10.892  20.245  0.00  0.00    +0.122 C 
BRANCH  16  17
ATOM     17  C   UNL     1     -29.776  -9.864  19.180  0.00  0.00    +0.305 C 
ATOM     18  O   UNL     1     -30.106  -8.690  19.496  0.00  0.00    -0.251 OA
BRANCH  17  19
ATOM     19  O   UNL     1     -29.617 -10.205  17.840  0.00  0.00    -0.481 OA
ATOM     20  H   UNL     1     -30.418 -10.444  17.268  0.00  0.00    +0.295 HD
ENDBRANCH  17  19
ENDBRANCH  16  17
ENDBRANCH  15  16
ENDBRANCH  14  15
ENDBRANCH   3  14
TORSDOF 7
ENDMDL
MODEL 4
REMARK VINA RESULT:    -3.995      2.652      3.721
REMARK INTER + INTRA:          -6.789
REMARK INTER:                  -5.231
REMARK INTRA:                  -1.558
REMARK UNBOUND:                -1.275
REMARK  Name = 
REMARK  8 active torsions:
REMARK  status: ('A' for Active; 'I' for Inactive)
REMARK    1  A    between atoms: C_1  and  O_2
REMARK    2  A    between atoms: O_2  and  C_3
REMARK    3  A    between atoms: C_9  and  C_10
REMARK    4  A    between atoms: N_12  and  C_13
REMARK    5  A    between atoms: C_13  and  C_14
REMARK    6  A    between atoms: C_14  and  C_15
REMARK    7  A    between atoms: C_15  and  C_16
REMARK    8  A    between atoms: C_16  and  O_18
REMARK                            x       y       z     vdW  Elec       q    Type
REMARK                         _______ _______ _______ _____ _____    ______ ____
ROOT
ATOM      1  C   UNL     1     -30.631 -10.695  16.811  0.00  0.00    +0.248 C 
ATOM      2  O   UNL     1     -31.155  -9.650  17.282  0.00  0.00    -0.270 OA
ATOM      3  N   UNL     1     -29.398 -11.190  17.356  0.00  0.00    -0.311 N 
ATOM      4  H   UNL     1     -28.882 -11.944  16.847  0.00  0.00    +0.149 HD
ENDROOT
BRANCH   1  11
ATOM      5  C   UNL     1     -30.945 -12.700  15.308  0.00  0.00    +0.133 A 
ATOM      6  C   UNL     1     -31.577 -13.293  14.195  0.00  0.00    +0.061 A 
ATOM      7  C   UNL     1     -32.538 -12.588  13.466  0.00  0.00    +0.021 A 
ATOM      8 BR   UNL     1     -33.389 -13.407  11.965  0.00  0.00    -0.050 Br
ATOM      9  C   UNL     1     -32.884 -11.289  13.840  0.00  0.00    +0.016 A 
ATOM     10  C   UNL     1     -32.262 -10.687  14.934  0.00  0.00    +0.018 A 
ATOM     11  C   UNL     1     -31.279 -11.374  15.665  0.00  0.00    +0.078 A 
BRANCH   5  13
ATOM     12  C   UNL     1     -29.164 -14.439  15.594  0.00  0.00    +0.277 C 
ATOM     13  O   UNL     1     -30.013 -13.407  16.085  0.00  0.00    -0.494 OA
ENDBRANCH   5  13
ENDBRANCH   1  11
BRANCH   3  14
ATOM     14  C   UNL     1     -28.756 -10.609  18.537  0.00  0.00    +0.105 C 
BRANCH  14  15
ATOM     15  C   UNL     1     -28.972 -11.501  19.767  0.00  0.00    +0.030 C 
BRANCH  15  16
ATOM     16  C   UNL     1     -29.100 -12.991  19.419  0.00  0.00    +0.122 C 
BRANCH  16  17
ATOM     17  C   UNL     1     -30.518 -13.466  19.525  0.00  0.00    +0.305 C 
ATOM     18  O   UNL     1     -31.283 -12.982  20.401  0.00  0.00    -0.251 OA
BRANCH  17  19
ATOM     19  O   UNL     1     -30.991 -14.436  18.647  0.00  0.00    -0.481 OA
ATOM     20  H   UNL     1     -31.371 -14.177  17.744  0.00  0.00    +0.295 HD
ENDBRANCH  17  19
ENDBRANCH  16  17
ENDBRANCH  15  16
ENDBRANCH  14  15
ENDBRANCH   3  14
TORSDOF 7
ENDMDL
MODEL 5
REMARK VINA RESULT:    -3.943      1.741      2.995
REMARK INTER + INTRA:          -6.717
REMARK INTER:                  -5.517
REMARK INTRA:                  -1.199
REMARK UNBOUND:                -1.275
REMARK  Name = 
REMARK  8 active torsions:
REMARK  status: ('A' for Active; 'I' for Inactive)
REMARK    1  A    between atoms: C_1  and  O_2
REMARK    2  A    between atoms: O_2  and  C_3
REMARK    3  A    between atoms: C_9  and  C_10
REMARK    4  A    between atoms: N_12  and  C_13
REMARK    5  A    between atoms: C_13  and  C_14
REMARK    6  A    between atoms: C_14  and  C_15
REMARK    7  A    between atoms: C_15  and  C_16
REMARK    8  A    between atoms: C_16  and  O_18
REMARK                            x       y       z     vdW  Elec       q    Type
REMARK                         _______ _______ _______ _____ _____    ______ ____
ROOT
ATOM      1  C   UNL     1     -30.480 -11.016  17.020  0.00  0.00    +0.248 C 
ATOM      2  O   UNL     1     -29.865  -9.919  16.941  0.00  0.00    -0.270 OA
ATOM      3  N   UNL     1     -30.492 -11.746  18.257  0.00  0.00    -0.311 N 
ATOM      4  H   UNL     1     -30.846 -12.730  18.264  0.00  0.00    +0.149 HD
ENDROOT
BRANCH   1  11
ATOM      5  C   UNL     1     -30.784 -12.813  15.272  0.00  0.00    +0.133 A 
ATOM      6  C   UNL     1     -31.435 -13.274  14.109  0.00  0.00    +0.061 A 
ATOM      7  C   UNL     1     -32.443 -12.513  13.511  0.00  0.00    +0.021 A 
ATOM      8 BR   UNL     1     -33.320 -13.155  11.940  0.00  0.00    -0.050 Br
ATOM      9  C   UNL     1     -32.816 -11.289  14.066  0.00  0.00    +0.016 A 
ATOM     10  C   UNL     1     -32.175 -10.816  15.211  0.00  0.00    +0.018 A 
ATOM     11  C   UNL     1     -31.146 -11.558  15.814  0.00  0.00    +0.078 A 
BRANCH   5  13
ATOM     12  C   UNL     1     -29.129 -14.694  15.335  0.00  0.00    +0.277 C 
ATOM     13  O   UNL     1     -29.803 -13.584  15.918  0.00  0.00    -0.494 OA
ENDBRANCH   5  13
ENDBRANCH   1  11
BRANCH   3  14
ATOM     14  C   UNL     1     -29.923 -11.223  19.499  0.00  0.00    +0.105 C 
BRANCH  14  15
ATOM     15  C   UNL     1     -29.589 -12.364  20.469  0.00  0.00    +0.030 C 
BRANCH  15  16
ATOM     16  C   UNL     1     -28.095 -12.723  20.490  0.00  0.00    +0.122 C 
BRANCH  16  17
ATOM     17  C   UNL     1     -27.474 -12.589  19.133  0.00  0.00    +0.305 C 
ATOM     18  O   UNL     1     -26.576 -11.729  18.930  0.00  0.00    -0.251 OA
BRANCH  17  19
ATOM     19  O   UNL     1     -27.883 -13.424  18.098  0.00  0.00    -0.481 OA
ATOM     20  H   UNL     1     -28.327 -14.313  18.293  0.00  0.00    +0.295 HD
ENDBRANCH  17  19
ENDBRANCH  16  17
ENDBRANCH  15  16
ENDBRANCH  14  15
ENDBRANCH   3  14
TORSDOF 7
ENDMDL
MODEL 6
REMARK VINA RESULT:    -3.710      1.930      2.293
REMARK INTER + INTRA:          -6.395
REMARK INTER:                  -5.096
REMARK INTRA:                  -1.299
REMARK UNBOUND:                -1.275
REMARK  Name = 
REMARK  8 active torsions:
REMARK  status: ('A' for Active; 'I' for Inactive)
REMARK    1  A    between atoms: C_1  and  O_2
REMARK    2  A    between atoms: O_2  and  C_3
REMARK    3  A    between atoms: C_9  and  C_10
REMARK    4  A    between atoms: N_12  and  C_13
REMARK    5  A    between atoms: C_13  and  C_14
REMARK    6  A    between atoms: C_14  and  C_15
REMARK    7  A    between atoms: C_15  and  C_16
REMARK    8  A    between atoms: C_16  and  O_18
REMARK                            x       y       z     vdW  Elec       q    Type
REMARK                         _______ _______ _______ _____ _____    ______ ____
ROOT
ATOM      1  C   UNL     1     -30.632 -13.453  17.337  0.00  0.00    +0.248 C 
ATOM      2  O   UNL     1     -29.454 -13.899  17.307  0.00  0.00    -0.270 OA
ATOM      3  N   UNL     1     -31.300 -13.270  18.596  0.00  0.00    -0.311 N 
ATOM      4  H   UNL     1     -32.327 -13.075  18.604  0.00  0.00    +0.149 HD
ENDROOT
BRANCH   1  11
ATOM      5  C   UNL     1     -32.458 -12.318  16.012  0.00  0.00    +0.133 A 
ATOM      6  C   UNL     1     -33.097 -12.094  14.775  0.00  0.00    +0.061 A 
ATOM      7  C   UNL     1     -32.608 -12.684  13.607  0.00  0.00    +0.021 A 
ATOM      8 BR   UNL     1     -33.481 -12.366  11.938  0.00  0.00    -0.050 Br
ATOM      9  C   UNL     1     -31.476 -13.497  13.657  0.00  0.00    +0.016 A 
ATOM     10  C   UNL     1     -30.838 -13.734  14.875  0.00  0.00    +0.018 A 
ATOM     11  C   UNL     1     -31.328 -13.166  16.062  0.00  0.00    +0.078 A 
BRANCH   5  13
ATOM     12  C   UNL     1     -33.957 -10.741  17.257  0.00  0.00    +0.277 C 
ATOM     13  O   UNL     1     -32.903 -11.696  17.191  0.00  0.00    -0.494 OA
ENDBRANCH   5  13
ENDBRANCH   1  11
BRANCH   3  14
ATOM     14  C   UNL     1     -30.637 -13.460  19.887  0.00  0.00    +0.105 C 
BRANCH  14  15
ATOM     15  C   UNL     1     -29.891 -12.186  20.308  0.00  0.00    +0.030 C 
BRANCH  15  16
ATOM     16  C   UNL     1     -28.451 -12.454  20.770  0.00  0.00    +0.122 C 
BRANCH  16  17
ATOM     17  C   UNL     1     -27.525 -12.661  19.610  0.00  0.00    +0.305 C 
ATOM     18  O   UNL     1     -26.893 -11.686  19.123  0.00  0.00    -0.251 OA
BRANCH  17  19
ATOM     19  O   UNL     1     -27.356 -13.935  19.077  0.00  0.00    -0.481 OA
ATOM     20  H   UNL     1     -26.834 -14.642  19.579  0.00  0.00    +0.295 HD
ENDBRANCH  17  19
ENDBRANCH  16  17
ENDBRANCH  15  16
ENDBRANCH  14  15
ENDBRANCH   3  14
TORSDOF 7
ENDMDL
MODEL 7
REMARK VINA RESULT:    -3.701      3.662      5.542
REMARK INTER + INTRA:          -6.382
REMARK INTER:                  -5.035
REMARK INTRA:                  -1.347
REMARK UNBOUND:                -1.275
REMARK  Name = 
REMARK  8 active torsions:
REMARK  status: ('A' for Active; 'I' for Inactive)
REMARK    1  A    between atoms: C_1  and  O_2
REMARK    2  A    between atoms: O_2  and  C_3
REMARK    3  A    between atoms: C_9  and  C_10
REMARK    4  A    between atoms: N_12  and  C_13
REMARK    5  A    between atoms: C_13  and  C_14
REMARK    6  A    between atoms: C_14  and  C_15
REMARK    7  A    between atoms: C_15  and  C_16
REMARK    8  A    between atoms: C_16  and  O_18
REMARK                            x       y       z     vdW  Elec       q    Type
REMARK                         _______ _______ _______ _____ _____    ______ ____
ROOT
ATOM      1  C   UNL     1     -32.198 -12.577  13.819  0.00  0.00    +0.248 C 
ATOM      2  O   UNL     1     -32.514 -12.994  12.673  0.00  0.00    -0.270 OA
ATOM      3  N   UNL     1     -31.248 -13.305  14.614  0.00  0.00    -0.311 N 
ATOM      4  H   UNL     1     -31.131 -13.055  15.622  0.00  0.00    +0.149 HD
ENDROOT
BRANCH   1  11
ATOM      5  C   UNL     1     -32.228 -10.550  15.327  0.00  0.00    +0.133 A 
ATOM      6  C   UNL     1     -32.902  -9.411  15.813  0.00  0.00    +0.061 A 
ATOM      7  C   UNL     1     -34.164  -9.069  15.318  0.00  0.00    +0.021 A 
ATOM      8 BR   UNL     1     -35.062  -7.520  15.982  0.00  0.00    -0.050 Br
ATOM      9  C   UNL     1     -34.763  -9.854  14.333  0.00  0.00    +0.016 A 
ATOM     10  C   UNL     1     -34.111 -10.987  13.848  0.00  0.00    +0.018 A 
ATOM     11  C   UNL     1     -32.852 -11.358  14.349  0.00  0.00    +0.078 A 
BRANCH   5  13
ATOM     12  C   UNL     1     -30.222 -10.184  16.785  0.00  0.00    +0.277 C 
ATOM     13  O   UNL     1     -30.938 -10.885  15.773  0.00  0.00    -0.494 OA
ENDBRANCH   5  13
ENDBRANCH   1  11
BRANCH   3  14
ATOM     14  C   UNL     1     -30.512 -14.466  14.114  0.00  0.00    +0.105 C 
BRANCH  14  15
ATOM     15  C   UNL     1     -29.536 -14.991  15.176  0.00  0.00    +0.030 C 
BRANCH  15  16
ATOM     16  C   UNL     1     -29.226 -13.962  16.273  0.00  0.00    +0.122 C 
BRANCH  16  17
ATOM     17  C   UNL     1     -30.173 -14.082  17.429  0.00  0.00    +0.305 C 
ATOM     18  O   UNL     1     -31.412 -13.937  17.249  0.00  0.00    -0.251 OA
BRANCH  17  19
ATOM     19  O   UNL     1     -29.683 -14.364  18.700  0.00  0.00    -0.481 OA
ATOM     20  H   UNL     1     -29.793 -13.700  19.457  0.00  0.00    +0.295 HD
ENDBRANCH  17  19
ENDBRANCH  16  17
ENDBRANCH  15  16
ENDBRANCH  14  15
ENDBRANCH   3  14
TORSDOF 7
ENDMDL
MODEL 8
REMARK VINA RESULT:    -3.661      3.039      4.331
REMARK INTER + INTRA:          -6.328
REMARK INTER:                  -5.211
REMARK INTRA:                  -1.117
REMARK UNBOUND:                -1.275
REMARK  Name = 
REMARK  8 active torsions:
REMARK  status: ('A' for Active; 'I' for Inactive)
REMARK    1  A    between atoms: C_1  and  O_2
REMARK    2  A    between atoms: O_2  and  C_3
REMARK    3  A    between atoms: C_9  and  C_10
REMARK    4  A    between atoms: N_12  and  C_13
REMARK    5  A    between atoms: C_13  and  C_14
REMARK    6  A    between atoms: C_14  and  C_15
REMARK    7  A    between atoms: C_15  and  C_16
REMARK    8  A    between atoms: C_16  and  O_18
REMARK                            x       y       z     vdW  Elec       q    Type
REMARK                         _______ _______ _______ _____ _____    ______ ____
ROOT
ATOM      1  C   UNL     1     -30.374 -10.756  16.769  0.00  0.00    +0.248 C 
ATOM      2  O   UNL     1     -30.261  -9.502  16.826  0.00  0.00    -0.270 OA
ATOM      3  N   UNL     1     -29.710 -11.583  17.738  0.00  0.00    -0.311 N 
ATOM      4  H   UNL     1     -29.660 -12.615  17.578  0.00  0.00    +0.149 HD
ENDROOT
BRANCH   1  11
ATOM      5  C   UNL     1     -30.831 -12.630  15.138  0.00  0.00    +0.133 A 
ATOM      6  C   UNL     1     -31.597 -13.151  14.075  0.00  0.00    +0.061 A 
ATOM      7  C   UNL     1     -32.683 -12.434  13.565  0.00  0.00    +0.021 A 
ATOM      8 BR   UNL     1     -33.715 -13.157  12.130  0.00  0.00    -0.050 Br
ATOM      9  C   UNL     1     -33.019 -11.195  14.110  0.00  0.00    +0.016 A 
ATOM     10  C   UNL     1     -32.266 -10.663  15.157  0.00  0.00    +0.018 A 
ATOM     11  C   UNL     1     -31.158 -11.361  15.668  0.00  0.00    +0.078 A 
BRANCH   5  13
ATOM     12  C   UNL     1     -29.477 -14.720  15.418  0.00  0.00    +0.277 C 
ATOM     13  O   UNL     1     -29.766 -13.355  15.699  0.00  0.00    -0.494 OA
ENDBRANCH   5  13
ENDBRANCH   1  11
BRANCH   3  14
ATOM     14  C   UNL     1     -28.991 -11.042  18.891  0.00  0.00    +0.105 C 
BRANCH  14  15
ATOM     15  C   UNL     1     -29.620 -11.529  20.204  0.00  0.00    +0.030 C 
BRANCH  15  16
ATOM     16  C   UNL     1     -30.059 -10.382  21.126  0.00  0.00    +0.122 C 
BRANCH  16  17
ATOM     17  C   UNL     1     -30.615  -9.227  20.350  0.00  0.00    +0.305 C 
ATOM     18  O   UNL     1     -31.737  -9.327  19.784  0.00  0.00    -0.251 OA
BRANCH  17  19
ATOM     19  O   UNL     1     -29.895  -8.040  20.262  0.00  0.00    -0.481 OA
ATOM     20  H   UNL     1     -30.155  -7.233  20.816  0.00  0.00    +0.295 HD
ENDBRANCH  17  19
ENDBRANCH  16  17
ENDBRANCH  15  16
ENDBRANCH  14  15
ENDBRANCH   3  14
TORSDOF 7
ENDMDL
MODEL 9
REMARK VINA RESULT:    -3.621      2.297      3.397
REMARK INTER + INTRA:          -6.272
REMARK INTER:                  -5.248
REMARK INTRA:                  -1.024
REMARK UNBOUND:                -1.275
REMARK  Name = 
REMARK  8 active torsions:
REMARK  status: ('A' for Active; 'I' for Inactive)
REMARK    1  A    between atoms: C_1  and  O_2
REMARK    2  A    between atoms: O_2  and  C_3
REMARK    3  A    between atoms: C_9  and  C_10
REMARK    4  A    between atoms: N_12  and  C_13
REMARK    5  A    between atoms: C_13  and  C_14
REMARK    6  A    between atoms: C_14  and  C_15
REMARK    7  A    between atoms: C_15  and  C_16
REMARK    8  A    between atoms: C_16  and  O_18
REMARK                            x       y       z     vdW  Elec       q    Type
REMARK                         _______ _______ _______ _____ _____    ______ ____
ROOT
ATOM      1  C   UNL     1     -30.755 -10.278  16.740  0.00  0.00    +0.248 C 
ATOM      2  O   UNL     1     -29.898  -9.402  16.451  0.00  0.00    -0.270 OA
ATOM      3  N   UNL     1     -30.943 -10.678  18.107  0.00  0.00    -0.311 N 
ATOM      4  H   UNL     1     -31.520 -11.525  18.315  0.00  0.00    +0.149 HD
ENDROOT
BRANCH   1  11
ATOM      5  C   UNL     1     -32.731 -10.355  15.169  0.00  0.00    +0.133 A 
ATOM      6  C   UNL     1     -33.439 -11.015  14.144  0.00  0.00    +0.061 A 
ATOM      7  C   UNL     1     -32.948 -12.203  13.594  0.00  0.00    +0.021 A 
ATOM      8 BR   UNL     1     -33.915 -13.083  12.202  0.00  0.00    -0.050 Br
ATOM      9  C   UNL     1     -31.746 -12.740  14.054  0.00  0.00    +0.016 A 
ATOM     10  C   UNL     1     -31.038 -12.102  15.072  0.00  0.00    +0.018 A 
ATOM     11  C   UNL     1     -31.528 -10.919  15.651  0.00  0.00    +0.078 A 
BRANCH   5  13
ATOM     12  C   UNL     1     -34.444  -8.938  16.326  0.00  0.00    +0.277 C 
ATOM     13  O   UNL     1     -33.180  -9.135  15.702  0.00  0.00    -0.494 OA
ENDBRANCH   5  13
ENDBRANCH   1  11
BRANCH   3  14
ATOM     14  C   UNL     1     -30.269 -10.026  19.230  0.00  0.00    +0.105 C 
BRANCH  14  15
ATOM     15  C   UNL     1     -29.328 -11.006  19.945  0.00  0.00    +0.030 C 
BRANCH  15  16
ATOM     16  C   UNL     1     -28.196 -11.523  19.044  0.00  0.00    +0.122 C 
BRANCH  16  17
ATOM     17  C   UNL     1     -28.406 -12.955  18.657  0.00  0.00    +0.305 C 
ATOM     18  O   UNL     1     -29.439 -13.294  18.018  0.00  0.00    -0.251 OA
BRANCH  17  19
ATOM     19  O   UNL     1     -27.454 -13.912  18.995  0.00  0.00    -0.481 OA
ATOM     20  H   UNL     1     -26.653 -14.080  18.398  0.00  0.00    +0.295 HD
ENDBRANCH  17  19
ENDBRANCH  16  17
ENDBRANCH  15  16
ENDBRANCH  14  15
ENDBRANCH   3  14
TORSDOF 7
ENDMDL
