MODEL 1
REMARK VINA RESULT:    -5.095      0.000      0.000
REMARK INTER + INTRA:          -8.203
REMARK INTER:                  -6.883
REMARK INTRA:                  -1.320
REMARK UNBOUND:                -1.320
REMARK  Name = 
REMARK  10 active torsions:
REMARK  status: ('A' for Active; 'I' for Inactive)
REMARK    1  A    between atoms: C_1  and  O_2
REMARK    2  A    between atoms: O_2  and  C_3
REMARK    3  A    between atoms: C_6  and  S_22
REMARK    4  A    between atoms: C_8  and  C_9
REMARK    5  A    between atoms: N_11  and  C_12
REMARK    6  A    between atoms: C_12  and  C_13
REMARK    7  A    between atoms: C_13  and  C_14
REMARK    8  A    between atoms: C_13  and  C_15
REMARK    9  A    between atoms: C_13  and  C_16
REMARK   10  A    between atoms: S_22  and  C_23
REMARK                            x       y       z     vdW  Elec       q    Type
REMARK                         _______ _______ _______ _____ _____    ______ ____
ROOT
ATOM      1  C   UNL     1     -30.944  -9.651  17.006  0.00  0.00    +0.248 C 
ATOM      2  O   UNL     1     -30.160  -9.121  16.172  0.00  0.00    -0.270 OA
ATOM      3  N   UNL     1     -32.343  -9.781  16.699  0.00  0.00    -0.311 N 
ATOM      4  H   UNL     1     -33.000 -10.087  17.451  0.00  0.00    +0.149 HD
ENDROOT
BRANCH   1  10
ATOM      5  C   UNL     1     -30.947  -9.604  19.527  0.00  0.00    +0.132 A 
ATOM      6  C   UNL     1     -30.397 -10.046  20.747  0.00  0.00    +0.048 A 
ATOM      7  C   UNL     1     -29.350 -10.968  20.761  0.00  0.00    +0.030 A 
ATOM      8  C   UNL     1     -28.833 -11.465  19.561  0.00  0.00    +0.089 A 
ATOM      9  C   UNL     1     -29.374 -11.038  18.344  0.00  0.00    +0.043 A 
ATOM     10  C   UNL     1     -30.415 -10.094  18.314  0.00  0.00    +0.080 A 
BRANCH   8  11
ATOM     11  S   UNL     1     -27.519 -12.639  19.575  0.00  0.00    -0.006 S 
ATOM     12  C   UNL     1     -27.486 -13.473  21.145  0.00  0.00    +0.200 C 
ATOM     13  O   UNL     1     -26.206 -11.942  19.352  0.00  0.00    -0.170 OA
ATOM     14  O   UNL     1     -27.726 -13.641  18.474  0.00  0.00    -0.170 OA
ENDBRANCH   8  11
BRANCH   5  16
ATOM     15  C   UNL     1     -31.988  -7.365  19.956  0.00  0.00    +0.277 C 
ATOM     16  O   UNL     1     -32.030  -8.710  19.490  0.00  0.00    -0.494 OA
ENDBRANCH   5  16
ENDBRANCH   1  10
BRANCH   3  17
ATOM     17  C   UNL     1     -32.904  -9.462  15.383  0.00  0.00    +0.111 C 
BRANCH  17  18
ATOM     18  C   UNL     1     -33.826 -10.602  14.847  0.00  0.00    -0.017 C 
ATOM     19  C   UNL     1     -34.350 -11.438  16.043  0.00  0.00    +0.013 C 
ATOM     20  C   UNL     1     -35.061  -9.986  14.140  0.00  0.00    +0.013 C 
BRANCH  18  21
ATOM     21  C   UNL     1     -33.062 -11.547  13.835  0.00  0.00    -0.004 C 
ATOM     22  C   UNL     1     -33.973 -12.562  13.098  0.00  0.00    +0.004 C 
ATOM     23  C   UNL     1     -33.230 -13.254  11.937  0.00  0.00    +0.000 C 
ATOM     24  C   UNL     1     -31.721 -13.434  12.192  0.00  0.00    +0.000 C 
ATOM     25  C   UNL     1     -31.413 -13.553  13.687  0.00  0.00    +0.000 C 
ATOM     26  C   UNL     1     -31.841 -12.290  14.461  0.00  0.00    +0.004 C 
ENDBRANCH  18  21
ENDBRANCH  17  18
ENDBRANCH   3  17
TORSDOF 6
ENDMDL
MODEL 2
REMARK VINA RESULT:    -4.704      2.933      7.522
REMARK INTER + INTRA:          -7.674
REMARK INTER:                  -6.446
REMARK INTRA:                  -1.228
REMARK UNBOUND:                -1.320
REMARK  Name = 
REMARK  10 active torsions:
REMARK  status: ('A' for Active; 'I' for Inactive)
REMARK    1  A    between atoms: C_1  and  O_2
REMARK    2  A    between atoms: O_2  and  C_3
REMARK    3  A    between atoms: C_6  and  S_22
REMARK    4  A    between atoms: C_8  and  C_9
REMARK    5  A    between atoms: N_11  and  C_12
REMARK    6  A    between atoms: C_12  and  C_13
REMARK    7  A    between atoms: C_13  and  C_14
REMARK    8  A    between atoms: C_13  and  C_15
REMARK    9  A    between atoms: C_13  and  C_16
REMARK   10  A    between atoms: S_22  and  C_23
REMARK                            x       y       z     vdW  Elec       q    Type
REMARK                         _______ _______ _______ _____ _____    ______ ____
ROOT
ATOM      1  C   UNL     1     -29.500 -13.737  16.227  0.00  0.00    +0.248 C 
ATOM      2  O   UNL     1     -28.311 -14.129  16.070  0.00  0.00    -0.270 OA
ATOM      3  N   UNL     1     -30.018 -13.517  17.550  0.00  0.00    -0.311 N 
ATOM      4  H   UNL     1     -31.039 -13.334  17.670  0.00  0.00    +0.149 HD
ENDROOT
BRANCH   1  10
ATOM      5  C   UNL     1     -30.074 -14.192  13.815  0.00  0.00    +0.132 A 
ATOM      6  C   UNL     1     -30.916 -13.969  12.707  0.00  0.00    +0.048 A 
ATOM      7  C   UNL     1     -32.030 -13.135  12.820  0.00  0.00    +0.030 A 
ATOM      8  C   UNL     1     -32.323 -12.510  14.035  0.00  0.00    +0.089 A 
ATOM      9  C   UNL     1     -31.496 -12.729  15.143  0.00  0.00    +0.043 A 
ATOM     10  C   UNL     1     -30.360 -13.549  15.039  0.00  0.00    +0.080 A 
BRANCH   8  11
ATOM     11  S   UNL     1     -33.735 -11.467  14.184  0.00  0.00    -0.006 S 
ATOM     12  C   UNL     1     -34.620 -11.444  12.642  0.00  0.00    +0.200 C 
ATOM     13  O   UNL     1     -33.305 -10.070  14.535  0.00  0.00    -0.170 OA
ATOM     14  O   UNL     1     -34.631 -11.984  15.274  0.00  0.00    -0.170 OA
ENDBRANCH   8  11
BRANCH   5  16
ATOM     15  C   UNL     1     -27.968 -15.008  12.730  0.00  0.00    +0.277 C 
ATOM     16  O   UNL     1     -28.973 -15.062  13.737  0.00  0.00    -0.494 OA
ENDBRANCH   5  16
ENDBRANCH   1  10
BRANCH   3  17
ATOM     17  C   UNL     1     -29.184 -13.580  18.755  0.00  0.00    +0.111 C 
BRANCH  17  18
ATOM     18  C   UNL     1     -28.817 -12.160  19.288  0.00  0.00    -0.017 C 
ATOM     19  C   UNL     1     -28.668 -12.217  20.831  0.00  0.00    +0.013 C 
ATOM     20  C   UNL     1     -27.447 -11.723  18.708  0.00  0.00    +0.013 C 
BRANCH  18  21
ATOM     21  C   UNL     1     -29.914 -11.088  18.902  0.00  0.00    -0.004 C 
ATOM     22  C   UNL     1     -29.579 -10.260  17.634  0.00  0.00    +0.004 C 
ATOM     23  C   UNL     1     -30.794  -9.440  17.154  0.00  0.00    +0.000 C 
ATOM     24  C   UNL     1     -31.720  -8.982  18.297  0.00  0.00    +0.000 C 
ATOM     25  C   UNL     1     -30.950  -8.809  19.609  0.00  0.00    +0.000 C 
ATOM     26  C   UNL     1     -30.304 -10.131  20.071  0.00  0.00    +0.004 C 
ENDBRANCH  18  21
ENDBRANCH  17  18
ENDBRANCH   3  17
TORSDOF 6
ENDMDL
MODEL 3
REMARK VINA RESULT:    -4.550      1.887      2.511
REMARK INTER + INTRA:          -7.466
REMARK INTER:                  -6.433
REMARK INTRA:                  -1.033
REMARK UNBOUND:                -1.320
REMARK  Name = 
REMARK  10 active torsions:
REMARK  status: ('A' for Active; 'I' for Inactive)
REMARK    1  A    between atoms: C_1  and  O_2
REMARK    2  A    between atoms: O_2  and  C_3
REMARK    3  A    between atoms: C_6  and  S_22
REMARK    4  A    between atoms: C_8  and  C_9
REMARK    5  A    between atoms: N_11  and  C_12
REMARK    6  A    between atoms: C_12  and  C_13
REMARK    7  A    between atoms: C_13  and  C_14
REMARK    8  A    between atoms: C_13  and  C_15
REMARK    9  A    between atoms: C_13  and  C_16
REMARK   10  A    between atoms: S_22  and  C_23
REMARK                            x       y       z     vdW  Elec       q    Type
REMARK                         _______ _______ _______ _____ _____    ______ ____
ROOT
ATOM      1  C   UNL     1     -32.753 -11.389  18.119  0.00  0.00    +0.248 C 
ATOM      2  O   UNL     1     -33.442 -10.333  18.156  0.00  0.00    -0.270 OA
ATOM      3  N   UNL     1     -32.997 -12.373  17.098  0.00  0.00    -0.311 N 
ATOM      4  H   UNL     1     -32.522 -13.301  17.167  0.00  0.00    +0.149 HD
ENDROOT
BRANCH   1  10
ATOM      5  C   UNL     1     -32.037 -11.510  20.533  0.00  0.00    +0.132 A 
ATOM      6  C   UNL     1     -31.021 -11.724  21.485  0.00  0.00    +0.048 A 
ATOM      7  C   UNL     1     -29.727 -12.055  21.080  0.00  0.00    +0.030 A 
ATOM      8  C   UNL     1     -29.423 -12.179  19.721  0.00  0.00    +0.089 A 
ATOM      9  C   UNL     1     -30.426 -11.973  18.767  0.00  0.00    +0.043 A 
ATOM     10  C   UNL     1     -31.728 -11.619  19.159  0.00  0.00    +0.080 A 
BRANCH   8  11
ATOM     11  S   UNL     1     -27.795 -12.609  19.206  0.00  0.00    -0.006 S 
ATOM     12  C   UNL     1     -27.020 -13.603  20.461  0.00  0.00    +0.200 C 
ATOM     13  O   UNL     1     -26.982 -11.364  18.983  0.00  0.00    -0.170 OA
ATOM     14  O   UNL     1     -27.860 -13.380  17.918  0.00  0.00    -0.170 OA
ENDBRANCH   8  11
BRANCH   5  16
ATOM     15  C   UNL     1     -33.715 -10.422  22.043  0.00  0.00    +0.277 C 
ATOM     16  O   UNL     1     -33.356 -11.218  20.919  0.00  0.00    -0.494 OA
ENDBRANCH   5  16
ENDBRANCH   1  10
BRANCH   3  17
ATOM     17  C   UNL     1     -33.920 -12.153  15.981  0.00  0.00    +0.111 C 
BRANCH  17  18
ATOM     18  C   UNL     1     -33.166 -11.943  14.631  0.00  0.00    -0.017 C 
ATOM     19  C   UNL     1     -34.193 -11.932  13.469  0.00  0.00    +0.013 C 
ATOM     20  C   UNL     1     -32.460 -10.562  14.636  0.00  0.00    +0.013 C 
BRANCH  18  21
ATOM     21  C   UNL     1     -32.092 -13.077  14.377  0.00  0.00    -0.004 C 
ATOM     22  C   UNL     1     -30.727 -12.829  15.068  0.00  0.00    +0.004 C 
ATOM     23  C   UNL     1     -29.829 -14.082  15.018  0.00  0.00    +0.000 C 
ATOM     24  C   UNL     1     -30.047 -14.947  13.762  0.00  0.00    +0.000 C 
ATOM     25  C   UNL     1     -30.524 -14.106  12.575  0.00  0.00    +0.000 C 
ATOM     26  C   UNL     1     -31.870 -13.413  12.870  0.00  0.00    +0.004 C 
ENDBRANCH  18  21
ENDBRANCH  17  18
ENDBRANCH   3  17
TORSDOF 6
ENDMDL
MODEL 4
REMARK VINA RESULT:    -4.168      3.023      5.654
REMARK INTER + INTRA:          -6.950
REMARK INTER:                  -5.384
REMARK INTRA:                  -1.566
REMARK UNBOUND:                -1.320
REMARK  Name = 
REMARK  10 active torsions:
REMARK  status: ('A' for Active; 'I' for Inactive)
REMARK    1  A    between atoms: C_1  and  O_2
REMARK    2  A    between atoms: O_2  and  C_3
REMARK    3  A    between atoms: C_6  and  S_22
REMARK    4  A    between atoms: C_8  and  C_9
REMARK    5  A    between atoms: N_11  and  C_12
REMARK    6  A    between atoms: C_12  and  C_13
REMARK    7  A    between atoms: C_13  and  C_14
REMARK    8  A    between atoms: C_13  and  C_15
REMARK    9  A    between atoms: C_13  and  C_16
REMARK   10  A    between atoms: S_22  and  C_23
REMARK                            x       y       z     vdW  Elec       q    Type
REMARK                         _______ _______ _______ _____ _____    ______ ____
ROOT
ATOM      1  C   UNL     1     -31.136 -10.135  16.818  0.00  0.00    +0.248 C 
ATOM      2  O   UNL     1     -30.106  -9.672  16.257  0.00  0.00    -0.270 OA
ATOM      3  N   UNL     1     -31.541 -11.493  16.574  0.00  0.00    -0.311 N 
ATOM      4  H   UNL     1     -32.469 -11.816  16.929  0.00  0.00    +0.149 HD
ENDROOT
BRANCH   1  10
ATOM      5  C   UNL     1     -33.315  -9.036  17.451  0.00  0.00    +0.132 A 
ATOM      6  C   UNL     1     -34.034  -8.174  18.302  0.00  0.00    +0.048 A 
ATOM      7  C   UNL     1     -33.403  -7.554  19.381  0.00  0.00    +0.030 A 
ATOM      8  C   UNL     1     -32.046  -7.780  19.630  0.00  0.00    +0.089 A 
ATOM      9  C   UNL     1     -31.324  -8.638  18.793  0.00  0.00    +0.043 A 
ATOM     10  C   UNL     1     -31.941  -9.253  17.691  0.00  0.00    +0.080 A 
BRANCH   8  11
ATOM     11  S   UNL     1     -31.249  -7.009  20.998  0.00  0.00    -0.006 S 
ATOM     12  C   UNL     1     -32.300  -5.733  21.654  0.00  0.00    +0.200 C 
ATOM     13  O   UNL     1     -29.945  -6.404  20.557  0.00  0.00    -0.170 OA
ATOM     14  O   UNL     1     -30.970  -8.032  22.062  0.00  0.00    -0.170 OA
ENDBRANCH   8  11
BRANCH   5  16
ATOM     15  C   UNL     1     -35.049 -10.588  16.520  0.00  0.00    +0.277 C 
ATOM     16  O   UNL     1     -33.940  -9.705  16.385  0.00  0.00    -0.494 OA
ENDBRANCH   5  16
ENDBRANCH   1  10
BRANCH   3  17
ATOM     17  C   UNL     1     -30.727 -12.443  15.809  0.00  0.00    +0.111 C 
BRANCH  17  18
ATOM     18  C   UNL     1     -30.484 -13.770  16.594  0.00  0.00    -0.017 C 
ATOM     19  C   UNL     1     -31.851 -14.395  16.977  0.00  0.00    +0.013 C 
ATOM     20  C   UNL     1     -29.751 -14.789  15.684  0.00  0.00    +0.013 C 
BRANCH  18  21
ATOM     21  C   UNL     1     -29.628 -13.528  17.903  0.00  0.00    -0.004 C 
ATOM     22  C   UNL     1     -30.461 -13.108  19.141  0.00  0.00    +0.004 C 
ATOM     23  C   UNL     1     -29.622 -13.160  20.434  0.00  0.00    +0.000 C 
ATOM     24  C   UNL     1     -28.130 -12.841  20.214  0.00  0.00    +0.000 C 
ATOM     25  C   UNL     1     -27.925 -11.908  19.018  0.00  0.00    +0.000 C 
ATOM     26  C   UNL     1     -28.436 -12.541  17.707  0.00  0.00    +0.004 C 
ENDBRANCH  18  21
ENDBRANCH  17  18
ENDBRANCH   3  17
TORSDOF 6
ENDMDL
MODEL 5
REMARK VINA RESULT:    -4.146      2.633      6.767
REMARK INTER + INTRA:          -6.920
REMARK INTER:                  -5.638
REMARK INTRA:                  -1.282
REMARK UNBOUND:                -1.320
REMARK  Name = 
REMARK  10 active torsions:
REMARK  status: ('A' for Active; 'I' for Inactive)
REMARK    1  A    between atoms: C_1  and  O_2
REMARK    2  A    between atoms: O_2  and  C_3
REMARK    3  A    between atoms: C_6  and  S_22
REMARK    4  A    between atoms: C_8  and  C_9
REMARK    5  A    between atoms: N_11  and  C_12
REMARK    6  A    between atoms: C_12  and  C_13
REMARK    7  A    between atoms: C_13  and  C_14
REMARK    8  A    between atoms: C_13  and  C_15
REMARK    9  A    between atoms: C_13  and  C_16
REMARK   10  A    between atoms: S_22  and  C_23
REMARK                            x       y       z     vdW  Elec       q    Type
REMARK                         _______ _______ _______ _____ _____    ______ ____
ROOT
ATOM      1  C   UNL     1     -31.083  -9.804  17.094  0.00  0.00    +0.248 C 
ATOM      2  O   UNL     1     -29.910  -9.512  16.734  0.00  0.00    -0.270 OA
ATOM      3  N   UNL     1     -31.412  -9.872  18.493  0.00  0.00    -0.311 N 
ATOM      4  H   UNL     1     -32.342 -10.253  18.775  0.00  0.00    +0.149 HD
ENDROOT
BRANCH   1  10
ATOM      5  C   UNL     1     -33.330  -9.430  16.014  0.00  0.00    +0.132 A 
ATOM      6  C   UNL     1     -34.269  -9.775  15.022  0.00  0.00    +0.048 A 
ATOM      7  C   UNL     1     -33.982 -10.774  14.090  0.00  0.00    +0.030 A 
ATOM      8  C   UNL     1     -32.756 -11.444  14.129  0.00  0.00    +0.089 A 
ATOM      9  C   UNL     1     -31.814 -11.105  15.107  0.00  0.00    +0.043 A 
ATOM     10  C   UNL     1     -32.097 -10.117  16.065  0.00  0.00    +0.080 A 
BRANCH   8  11
ATOM     11  S   UNL     1     -32.386 -12.696  12.947  0.00  0.00    -0.006 S 
ATOM     12  C   UNL     1     -33.877 -13.178  12.107  0.00  0.00    +0.200 C 
ATOM     13  O   UNL     1     -31.791 -13.893  13.636  0.00  0.00    -0.170 OA
ATOM     14  O   UNL     1     -31.391 -12.170  11.951  0.00  0.00    -0.170 OA
ENDBRANCH   8  11
BRANCH   5  16
ATOM     15  C   UNL     1     -34.674  -8.372  17.845  0.00  0.00    +0.277 C 
ATOM     16  O   UNL     1     -33.579  -8.399  16.935  0.00  0.00    -0.494 OA
ENDBRANCH   5  16
ENDBRANCH   1  10
BRANCH   3  17
ATOM     17  C   UNL     1     -30.482  -9.468  19.552  0.00  0.00    +0.111 C 
BRANCH  17  18
ATOM     18  C   UNL     1     -30.389 -10.535  20.687  0.00  0.00    -0.017 C 
ATOM     19  C   UNL     1     -30.365  -9.818  22.062  0.00  0.00    +0.013 C 
ATOM     20  C   UNL     1     -31.649 -11.438  20.660  0.00  0.00    +0.013 C 
BRANCH  18  21
ATOM     21  C   UNL     1     -29.097 -11.436  20.539  0.00  0.00    -0.004 C 
ATOM     22  C   UNL     1     -28.897 -12.037  19.123  0.00  0.00    +0.004 C 
ATOM     23  C   UNL     1     -27.497 -12.665  18.965  0.00  0.00    +0.000 C 
ATOM     24  C   UNL     1     -26.936 -13.258  20.272  0.00  0.00    +0.000 C 
ATOM     25  C   UNL     1     -28.058 -13.726  21.203  0.00  0.00    +0.000 C 
ATOM     26  C   UNL     1     -28.983 -12.562  21.612  0.00  0.00    +0.004 C 
ENDBRANCH  18  21
ENDBRANCH  17  18
ENDBRANCH   3  17
TORSDOF 6
ENDMDL
MODEL 6
REMARK VINA RESULT:    -4.101      2.675      4.792
REMARK INTER + INTRA:          -6.860
REMARK INTER:                  -5.478
REMARK INTRA:                  -1.382
REMARK UNBOUND:                -1.320
REMARK  Name = 
REMARK  10 active torsions:
REMARK  status: ('A' for Active; 'I' for Inactive)
REMARK    1  A    between atoms: C_1  and  O_2
REMARK    2  A    between atoms: O_2  and  C_3
REMARK    3  A    between atoms: C_6  and  S_22
REMARK    4  A    between atoms: C_8  and  C_9
REMARK    5  A    between atoms: N_11  and  C_12
REMARK    6  A    between atoms: C_12  and  C_13
REMARK    7  A    between atoms: C_13  and  C_14
REMARK    8  A    between atoms: C_13  and  C_15
REMARK    9  A    between atoms: C_13  and  C_16
REMARK   10  A    between atoms: S_22  and  C_23
REMARK                            x       y       z     vdW  Elec       q    Type
REMARK                         _______ _______ _______ _____ _____    ______ ____
ROOT
ATOM      1  C   UNL     1     -31.803 -12.464  18.886  0.00  0.00    +0.248 C 
ATOM      2  O   UNL     1     -33.023 -12.441  18.566  0.00  0.00    -0.270 OA
ATOM      3  N   UNL     1     -30.918 -13.424  18.282  0.00  0.00    -0.311 N 
ATOM      4  H   UNL     1     -29.950 -13.526  18.660  0.00  0.00    +0.149 HD
ENDROOT
BRANCH   1  10
ATOM      5  C   UNL     1     -30.416 -11.946  20.926  0.00  0.00    +0.132 A 
ATOM      6  C   UNL     1     -29.986 -11.017  21.894  0.00  0.00    +0.048 A 
ATOM      7  C   UNL     1     -30.423  -9.692  21.850  0.00  0.00    +0.030 A 
ATOM      8  C   UNL     1     -31.295  -9.271  20.842  0.00  0.00    +0.089 A 
ATOM      9  C   UNL     1     -31.724 -10.184  19.872  0.00  0.00    +0.043 A 
ATOM     10  C   UNL     1     -31.309 -11.526  19.916  0.00  0.00    +0.080 A 
BRANCH   8  11
ATOM     11  S   UNL     1     -31.839  -7.597  20.775  0.00  0.00    -0.006 S 
ATOM     12  C   UNL     1     -32.971  -7.397  19.418  0.00  0.00    +0.200 C 
ATOM     13  O   UNL     1     -30.662  -6.682  20.583  0.00  0.00    -0.170 OA
ATOM     14  O   UNL     1     -32.525  -7.238  22.062  0.00  0.00    -0.170 OA
ENDBRANCH   8  11
BRANCH   5  16
ATOM     15  C   UNL     1     -28.593 -13.659  21.086  0.00  0.00    +0.277 C 
ATOM     16  O   UNL     1     -29.955 -13.274  20.926  0.00  0.00    -0.494 OA
ENDBRANCH   5  16
ENDBRANCH   1  10
BRANCH   3  17
ATOM     17  C   UNL     1     -31.324 -14.302  17.180  0.00  0.00    +0.111 C 
BRANCH  17  18
ATOM     18  C   UNL     1     -30.656 -13.894  15.830  0.00  0.00    -0.017 C 
ATOM     19  C   UNL     1     -29.715 -12.685  16.070  0.00  0.00    +0.013 C 
ATOM     20  C   UNL     1     -29.781 -15.062  15.306  0.00  0.00    +0.013 C 
BRANCH  18  21
ATOM     21  C   UNL     1     -31.733 -13.516  14.734  0.00  0.00    -0.004 C 
ATOM     22  C   UNL     1     -31.177 -13.457  13.288  0.00  0.00    +0.004 C 
ATOM     23  C   UNL     1     -32.311 -13.362  12.247  0.00  0.00    +0.000 C 
ATOM     24  C   UNL     1     -33.553 -12.605  12.756  0.00  0.00    +0.000 C 
ATOM     25  C   UNL     1     -33.182 -11.562  13.813  0.00  0.00    +0.000 C 
ATOM     26  C   UNL     1     -32.527 -12.211  15.050  0.00  0.00    +0.004 C 
ENDBRANCH  18  21
ENDBRANCH  17  18
ENDBRANCH   3  17
TORSDOF 6
ENDMDL
MODEL 7
REMARK VINA RESULT:    -3.725      2.968      6.185
REMARK INTER + INTRA:          -6.352
REMARK INTER:                  -5.062
REMARK INTRA:                  -1.290
REMARK UNBOUND:                -1.320
REMARK  Name = 
REMARK  10 active torsions:
REMARK  status: ('A' for Active; 'I' for Inactive)
REMARK    1  A    between atoms: C_1  and  O_2
REMARK    2  A    between atoms: O_2  and  C_3
REMARK    3  A    between atoms: C_6  and  S_22
REMARK    4  A    between atoms: C_8  and  C_9
REMARK    5  A    between atoms: N_11  and  C_12
REMARK    6  A    between atoms: C_12  and  C_13
REMARK    7  A    between atoms: C_13  and  C_14
REMARK    8  A    between atoms: C_13  and  C_15
REMARK    9  A    between atoms: C_13  and  C_16
REMARK   10  A    between atoms: S_22  and  C_23
REMARK                            x       y       z     vdW  Elec       q    Type
REMARK                         _______ _______ _______ _____ _____    ______ ____
ROOT
ATOM      1  C   UNL     1     -32.664 -10.549  16.174  0.00  0.00    +0.248 C 
ATOM      2  O   UNL     1     -31.961  -9.502  16.158  0.00  0.00    -0.270 OA
ATOM      3  N   UNL     1     -33.311 -10.964  17.390  0.00  0.00    -0.311 N 
ATOM      4  H   UNL     1     -33.767 -11.903  17.425  0.00  0.00    +0.149 HD
ENDROOT
BRANCH   1  10
ATOM      5  C   UNL     1     -33.905 -11.266  14.100  0.00  0.00    +0.132 A 
ATOM      6  C   UNL     1     -33.972 -12.073  12.947  0.00  0.00    +0.048 A 
ATOM      7  C   UNL     1     -32.930 -12.947  12.631  0.00  0.00    +0.030 A 
ATOM      8  C   UNL     1     -31.806 -13.032  13.457  0.00  0.00    +0.089 A 
ATOM      9  C   UNL     1     -31.727 -12.231  14.602  0.00  0.00    +0.043 A 
ATOM     10  C   UNL     1     -32.777 -11.362  14.944  0.00  0.00    +0.080 A 
BRANCH   8  11
ATOM     11  S   UNL     1     -30.484 -14.125  13.056  0.00  0.00    -0.006 S 
ATOM     12  C   UNL     1     -30.027 -15.057  14.499  0.00  0.00    +0.200 C 
ATOM     13  O   UNL     1     -29.297 -13.339  12.572  0.00  0.00    -0.170 OA
ATOM     14  O   UNL     1     -30.919 -15.062  11.965  0.00  0.00    -0.170 OA
ENDBRANCH   8  11
BRANCH   5  16
ATOM     15  C   UNL     1     -35.062  -9.061  13.822  0.00  0.00    +0.277 C 
ATOM     16  O   UNL     1     -34.921 -10.348  14.414  0.00  0.00    -0.494 OA
ENDBRANCH   5  16
ENDBRANCH   1  10
BRANCH   3  17
ATOM     17  C   UNL     1     -33.325 -10.145  18.606  0.00  0.00    +0.111 C 
BRANCH  17  18
ATOM     18  C   UNL     1     -32.150 -10.506  19.567  0.00  0.00    -0.017 C 
ATOM     19  C   UNL     1     -31.547  -9.200  20.149  0.00  0.00    +0.013 C 
ATOM     20  C   UNL     1     -32.687 -11.336  20.761  0.00  0.00    +0.013 C 
BRANCH  18  21
ATOM     21  C   UNL     1     -31.018 -11.327  18.828  0.00  0.00    -0.004 C 
ATOM     22  C   UNL     1     -30.820 -12.768  19.365  0.00  0.00    +0.004 C 
ATOM     23  C   UNL     1     -29.913 -13.601  18.437  0.00  0.00    +0.000 C 
ATOM     24  C   UNL     1     -28.840 -12.766  17.711  0.00  0.00    +0.000 C 
ATOM     25  C   UNL     1     -28.442 -11.532  18.525  0.00  0.00    +0.000 C 
ATOM     26  C   UNL     1     -29.642 -10.593  18.762  0.00  0.00    +0.004 C 
ENDBRANCH  18  21
ENDBRANCH  17  18
ENDBRANCH   3  17
TORSDOF 6
ENDMDL
MODEL 8
REMARK VINA RESULT:    -3.316      3.080      4.701
REMARK INTER + INTRA:          -5.800
REMARK INTER:                  -4.871
REMARK INTRA:                  -0.928
REMARK UNBOUND:                -1.320
REMARK  Name = 
REMARK  10 active torsions:
REMARK  status: ('A' for Active; 'I' for Inactive)
REMARK    1  A    between atoms: C_1  and  O_2
REMARK    2  A    between atoms: O_2  and  C_3
REMARK    3  A    between atoms: C_6  and  S_22
REMARK    4  A    between atoms: C_8  and  C_9
REMARK    5  A    between atoms: N_11  and  C_12
REMARK    6  A    between atoms: C_12  and  C_13
REMARK    7  A    between atoms: C_13  and  C_14
REMARK    8  A    between atoms: C_13  and  C_15
REMARK    9  A    between atoms: C_13  and  C_16
REMARK   10  A    between atoms: S_22  and  C_23
REMARK                            x       y       z     vdW  Elec       q    Type
REMARK                         _______ _______ _______ _____ _____    ______ ____
ROOT
ATOM      1  C   UNL     1     -31.284 -10.053  16.723  0.00  0.00    +0.248 C 
ATOM      2  O   UNL     1     -30.640  -9.466  15.811  0.00  0.00    -0.270 OA
ATOM      3  N   UNL     1     -31.158 -11.475  16.892  0.00  0.00    -0.311 N 
ATOM      4  H   UNL     1     -31.803 -11.965  17.552  0.00  0.00    +0.149 HD
ENDROOT
BRANCH   1  10
ATOM      5  C   UNL     1     -33.539  -9.035  17.209  0.00  0.00    +0.132 A 
ATOM      6  C   UNL     1     -34.365  -8.268  18.054  0.00  0.00    +0.048 A 
ATOM      7  C   UNL     1     -33.870  -7.756  19.255  0.00  0.00    +0.030 A 
ATOM      8  C   UNL     1     -32.546  -7.999  19.632  0.00  0.00    +0.089 A 
ATOM      9  C   UNL     1     -31.719  -8.763  18.802  0.00  0.00    +0.043 A 
ATOM     10  C   UNL     1     -32.197  -9.268  17.581  0.00  0.00    +0.080 A 
BRANCH   8  11
ATOM     11  S   UNL     1     -31.922  -7.364  21.152  0.00  0.00    -0.006 S 
ATOM     12  C   UNL     1     -30.814  -6.014  20.820  0.00  0.00    +0.200 C 
ATOM     13  O   UNL     1     -31.184  -8.444  21.895  0.00  0.00    -0.170 OA
ATOM     14  O   UNL     1     -33.062  -6.885  22.005  0.00  0.00    -0.170 OA
ENDBRANCH   8  11
BRANCH   5  16
ATOM     15  C   UNL     1     -34.600  -8.855  14.945  0.00  0.00    +0.277 C 
ATOM     16  O   UNL     1     -34.028  -9.597  16.017  0.00  0.00    -0.494 OA
ENDBRANCH   5  16
ENDBRANCH   1  10
BRANCH   3  17
ATOM     17  C   UNL     1     -30.191 -12.286  16.146  0.00  0.00    +0.111 C 
BRANCH  17  18
ATOM     18  C   UNL     1     -30.751 -13.703  15.810  0.00  0.00    -0.017 C 
ATOM     19  C   UNL     1     -29.575 -14.712  15.733  0.00  0.00    +0.013 C 
ATOM     20  C   UNL     1     -31.691 -14.177  16.949  0.00  0.00    +0.013 C 
BRANCH  18  21
ATOM     21  C   UNL     1     -31.544 -13.711  14.441  0.00  0.00    -0.004 C 
ATOM     22  C   UNL     1     -30.660 -13.963  13.193  0.00  0.00    +0.004 C 
ATOM     23  C   UNL     1     -31.514 -14.234  11.938  0.00  0.00    +0.000 C 
ATOM     24  C   UNL     1     -32.864 -13.492  11.937  0.00  0.00    +0.000 C 
ATOM     25  C   UNL     1     -32.789 -12.189  12.738  0.00  0.00    +0.000 C 
ATOM     26  C   UNL     1     -32.431 -12.447  14.216  0.00  0.00    +0.004 C 
ENDBRANCH  18  21
ENDBRANCH  17  18
ENDBRANCH   3  17
TORSDOF 6
ENDMDL
MODEL 9
REMARK VINA RESULT:    -2.728      2.345      4.511
REMARK INTER + INTRA:          -5.006
REMARK INTER:                  -3.559
REMARK INTRA:                  -1.447
REMARK UNBOUND:                -1.320
REMARK  Name = 
REMARK  10 active torsions:
REMARK  status: ('A' for Active; 'I' for Inactive)
REMARK    1  A    between atoms: C_1  and  O_2
REMARK    2  A    between atoms: O_2  and  C_3
REMARK    3  A    between atoms: C_6  and  S_22
REMARK    4  A    between atoms: C_8  and  C_9
REMARK    5  A    between atoms: N_11  and  C_12
REMARK    6  A    between atoms: C_12  and  C_13
REMARK    7  A    between atoms: C_13  and  C_14
REMARK    8  A    between atoms: C_13  and  C_15
REMARK    9  A    between atoms: C_13  and  C_16
REMARK   10  A    between atoms: S_22  and  C_23
REMARK                            x       y       z     vdW  Elec       q    Type
REMARK                         _______ _______ _______ _____ _____    ______ ____
ROOT
ATOM      1  C   UNL     1     -30.311 -10.395  17.580  0.00  0.00    +0.248 C 
ATOM      2  O   UNL     1     -30.148  -9.530  16.676  0.00  0.00    -0.270 OA
ATOM      3  N   UNL     1     -30.427 -11.786  17.234  0.00  0.00    -0.311 N 
ATOM      4  H   UNL     1     -30.705 -12.469  17.974  0.00  0.00    +0.149 HD
ENDROOT
BRANCH   1  10
ATOM      5  C   UNL     1     -30.071 -10.808  20.055  0.00  0.00    +0.132 A 
ATOM      6  C   UNL     1     -30.211 -10.347  21.379  0.00  0.00    +0.048 A 
ATOM      7  C   UNL     1     -30.679  -9.057  21.635  0.00  0.00    +0.030 A 
ATOM      8  C   UNL     1     -31.015  -8.206  20.579  0.00  0.00    +0.089 A 
ATOM      9  C   UNL     1     -30.874  -8.652  19.260  0.00  0.00    +0.043 A 
ATOM     10  C   UNL     1     -30.424  -9.955  18.987  0.00  0.00    +0.080 A 
BRANCH   8  11
ATOM     11  S   UNL     1     -31.594  -6.573  20.898  0.00  0.00    -0.006 S 
ATOM     12  C   UNL     1     -30.259  -5.585  21.533  0.00  0.00    +0.200 C 
ATOM     13  O   UNL     1     -32.710  -6.612  21.905  0.00  0.00    -0.170 OA
ATOM     14  O   UNL     1     -32.113  -5.965  19.626  0.00  0.00    -0.170 OA
ENDBRANCH   8  11
BRANCH   5  16
ATOM     15  C   UNL     1     -29.847 -13.258  20.528  0.00  0.00    +0.277 C 
ATOM     16  O   UNL     1     -29.561 -12.086  19.772  0.00  0.00    -0.494 OA
ENDBRANCH   5  16
ENDBRANCH   1  10
BRANCH   3  17
ATOM     17  C   UNL     1     -30.215 -12.291  15.874  0.00  0.00    +0.111 C 
BRANCH  17  18
ATOM     18  C   UNL     1     -31.043 -13.584  15.595  0.00  0.00    -0.017 C 
ATOM     19  C   UNL     1     -30.079 -14.731  15.192  0.00  0.00    +0.013 C 
ATOM     20  C   UNL     1     -31.771 -14.028  16.890  0.00  0.00    +0.013 C 
BRANCH  18  21
ATOM     21  C   UNL     1     -32.108 -13.361  14.447  0.00  0.00    -0.004 C 
ATOM     22  C   UNL     1     -31.507 -13.314  13.019  0.00  0.00    +0.004 C 
ATOM     23  C   UNL     1     -32.605 -13.375  11.937  0.00  0.00    +0.000 C 
ATOM     24  C   UNL     1     -33.931 -12.718  12.368  0.00  0.00    +0.000 C 
ATOM     25  C   UNL     1     -33.699 -11.598  13.385  0.00  0.00    +0.000 C 
ATOM     26  C   UNL     1     -33.033 -12.125  14.673  0.00  0.00    +0.004 C 
ENDBRANCH  18  21
ENDBRANCH  17  18
ENDBRANCH   3  17
TORSDOF 6
ENDMDL
