MODEL 1
REMARK VINA RESULT:    -3.622      0.000      0.000
REMARK INTER + INTRA:          -5.560
REMARK INTER:                  -4.469
REMARK INTRA:                  -1.091
REMARK UNBOUND:                -1.091
REMARK  Name = 
REMARK  7 active torsions:
REMARK  status: ('A' for Active; 'I' for Inactive)
REMARK    1  A    between atoms: C_1  and  N_2
REMARK    2  A    between atoms: N_2  and  C_3
REMARK    3  A    between atoms: N_2  and  C_14
REMARK    4  A    between atoms: C_3  and  C_4
REMARK    5  A    between atoms: C_4  and  N_5
REMARK    6  A    between atoms: C_9  and  C_10
REMARK    7  A    between atoms: C_9  and  C_11
REMARK                            x       y       z     vdW  Elec       q    Type
REMARK                         _______ _______ _______ _____ _____    ______ ____
ROOT
ATOM      1  C   UNL     1     -32.806 -10.949  19.701  0.00  0.00    +0.133 C 
ENDROOT
BRANCH   1   2
ATOM      2  N   UNL     1     -32.408 -10.539  18.356  0.00  0.00    -0.223 N 
ATOM      3  C   UNL     1     -31.696  -9.361  18.014  0.00  0.00    +0.309 C 
ATOM      4  O   UNL     1     -31.051  -8.669  18.846  0.00  0.00    -0.252 OA
ATOM      5  N   UNL     1     -31.809  -9.022  16.640  0.00  0.00    -0.285 N 
ATOM      6  C   UNL     1     -32.685 -10.002  15.997  0.00  0.00    +0.107 C 
ATOM      7  C   UNL     1     -33.933  -9.308  15.438  0.00  0.00    +0.041 C 
ATOM      8  C   UNL     1     -31.922 -10.757  14.903  0.00  0.00    +0.041 C 
ATOM      9  C   UNL     1     -33.043 -10.918  17.139  0.00  0.00    +0.246 C 
ATOM     10  O   UNL     1     -33.829 -11.899  17.049  0.00  0.00    -0.273 OA
ATOM     11  H   UNL     1     -31.367  -8.195  16.179  0.00  0.00    +0.151 HD
ENDBRANCH   1   2
BRANCH   1  12
ATOM     12  C   UNL     1     -32.313 -12.367  19.995  0.00  0.00    +0.104 C 
BRANCH  12  14
ATOM     13  C   UNL     1     -31.143 -11.019  21.624  0.00  0.00    +0.105 C 
ATOM     14  N   UNL     1     -31.148 -12.315  20.915  0.00  0.00    -0.299 NA
BRANCH  14  15
ATOM     15  C   UNL     1     -29.865 -12.564  20.198  0.00  0.00    +0.079 C 
ATOM     16  C   UNL     1     -30.081 -13.111  18.763  0.00  0.00    +0.043 C 
ATOM     17  C   UNL     1     -28.796 -12.931  17.963  0.00  0.00    +0.167 C 
ATOM     18  S   UNL     1     -28.073 -11.454  18.592  0.00  0.00    -0.029 S 
ATOM     19  O   UNL     1     -26.620 -11.647  18.919  0.00  0.00    -0.174 OA
ATOM     20  O   UNL     1     -28.258 -10.300  17.647  0.00  0.00    -0.174 OA
ATOM     21  C   UNL     1     -29.052 -11.261  20.050  0.00  0.00    +0.184 C 
ENDBRANCH  14  15
ENDBRANCH  12  14
ENDBRANCH   1  12
TORSDOF 4
ENDMDL
MODEL 2
REMARK VINA RESULT:    -3.470      1.736      2.484
REMARK INTER + INTRA:          -5.373
REMARK INTER:                  -4.443
REMARK INTRA:                  -0.930
REMARK UNBOUND:                -1.091
REMARK  Name = 
REMARK  7 active torsions:
REMARK  status: ('A' for Active; 'I' for Inactive)
REMARK    1  A    between atoms: C_1  and  N_2
REMARK    2  A    between atoms: N_2  and  C_3
REMARK    3  A    between atoms: N_2  and  C_14
REMARK    4  A    between atoms: C_3  and  C_4
REMARK    5  A    between atoms: C_4  and  N_5
REMARK    6  A    between atoms: C_9  and  C_10
REMARK    7  A    between atoms: C_9  and  C_11
REMARK                            x       y       z     vdW  Elec       q    Type
REMARK                         _______ _______ _______ _____ _____    ______ ____
ROOT
ATOM      1  C   UNL     1     -31.857  -8.656  18.778  0.00  0.00    +0.133 C 
ENDROOT
BRANCH   1   2
ATOM      2  N   UNL     1     -32.207  -9.602  17.721  0.00  0.00    -0.223 N 
ATOM      3  C   UNL     1     -33.157 -10.651  17.815  0.00  0.00    +0.309 C 
ATOM      4  O   UNL     1     -34.038 -10.716  18.713  0.00  0.00    -0.252 OA
ATOM      5  N   UNL     1     -32.995 -11.640  16.809  0.00  0.00    -0.285 N 
ATOM      6  C   UNL     1     -31.837 -11.275  15.991  0.00  0.00    +0.107 C 
ATOM      7  C   UNL     1     -30.758 -12.358  16.093  0.00  0.00    +0.041 C 
ATOM      8  C   UNL     1     -32.268 -11.042  14.539  0.00  0.00    +0.041 C 
ATOM      9  C   UNL     1     -31.376  -9.991  16.632  0.00  0.00    +0.246 C 
ATOM     10  O   UNL     1     -30.361  -9.337  16.272  0.00  0.00    -0.273 OA
ATOM     11  H   UNL     1     -33.584 -12.495  16.696  0.00  0.00    +0.151 HD
ENDBRANCH   1   2
BRANCH   1  12
ATOM     12  C   UNL     1     -30.555  -9.077  19.463  0.00  0.00    +0.104 C 
BRANCH  12  14
ATOM     13  C   UNL     1     -31.389 -10.077  21.499  0.00  0.00    +0.105 C 
ATOM     14  N   UNL     1     -30.759 -10.355  20.191  0.00  0.00    -0.299 NA
BRANCH  14  15
ATOM     15  C   UNL     1     -29.488 -11.119  20.336  0.00  0.00    +0.079 C 
ATOM     16  C   UNL     1     -29.726 -12.622  20.635  0.00  0.00    +0.043 C 
ATOM     17  C   UNL     1     -28.447 -13.397  20.344  0.00  0.00    +0.167 C 
ATOM     18  S   UNL     1     -27.694 -12.542  19.002  0.00  0.00    -0.029 S 
ATOM     19  O   UNL     1     -26.241 -12.269  19.268  0.00  0.00    -0.174 OA
ATOM     20  O   UNL     1     -27.869 -13.280  17.705  0.00  0.00    -0.174 OA
ATOM     21  C   UNL     1     -28.655 -11.059  19.039  0.00  0.00    +0.184 C 
ENDBRANCH  14  15
ENDBRANCH  12  14
ENDBRANCH   1  12
TORSDOF 4
ENDMDL
MODEL 3
REMARK VINA RESULT:    -3.438      1.642      1.885
REMARK INTER + INTRA:          -5.333
REMARK INTER:                  -4.696
REMARK INTRA:                  -0.637
REMARK UNBOUND:                -1.091
REMARK  Name = 
REMARK  7 active torsions:
REMARK  status: ('A' for Active; 'I' for Inactive)
REMARK    1  A    between atoms: C_1  and  N_2
REMARK    2  A    between atoms: N_2  and  C_3
REMARK    3  A    between atoms: N_2  and  C_14
REMARK    4  A    between atoms: C_3  and  C_4
REMARK    5  A    between atoms: C_4  and  N_5
REMARK    6  A    between atoms: C_9  and  C_10
REMARK    7  A    between atoms: C_9  and  C_11
REMARK                            x       y       z     vdW  Elec       q    Type
REMARK                         _______ _______ _______ _____ _____    ______ ____
ROOT
ATOM      1  C   UNL     1     -32.979 -10.590  18.335  0.00  0.00    +0.133 C 
ENDROOT
BRANCH   1   2
ATOM      2  N   UNL     1     -32.928 -10.785  16.888  0.00  0.00    -0.223 N 
ATOM      3  C   UNL     1     -32.017 -10.172  15.990  0.00  0.00    +0.309 C 
ATOM      4  O   UNL     1     -30.946  -9.617  16.353  0.00  0.00    -0.252 OA
ATOM      5  N   UNL     1     -32.451 -10.219  14.638  0.00  0.00    -0.285 N 
ATOM      6  C   UNL     1     -33.761 -10.870  14.601  0.00  0.00    +0.107 C 
ATOM      7  C   UNL     1     -34.817  -9.900  14.060  0.00  0.00    +0.041 C 
ATOM      8  C   UNL     1     -33.691 -12.153  13.765  0.00  0.00    +0.041 C 
ATOM      9  C   UNL     1     -34.011 -11.184  16.054  0.00  0.00    +0.246 C 
ATOM     10  O   UNL     1     -35.062 -11.718  16.499  0.00  0.00    -0.273 OA
ATOM     11  H   UNL     1     -31.935  -9.827  13.820  0.00  0.00    +0.151 HD
ENDBRANCH   1   2
BRANCH   1  12
ATOM     12  C   UNL     1     -32.023 -11.555  19.039  0.00  0.00    +0.104 C 
BRANCH  12  14
ATOM     13  C   UNL     1     -31.399  -9.384  19.898  0.00  0.00    +0.105 C 
ATOM     14  N   UNL     1     -31.288 -10.842  20.115  0.00  0.00    -0.299 NA
BRANCH  14  15
ATOM     15  C   UNL     1     -29.869 -11.286  20.204  0.00  0.00    +0.079 C 
ATOM     16  C   UNL     1     -29.736 -12.787  20.574  0.00  0.00    +0.043 C 
ATOM     17  C   UNL     1     -28.330 -13.263  20.228  0.00  0.00    +0.167 C 
ATOM     18  S   UNL     1     -27.871 -12.328  18.809  0.00  0.00    -0.029 S 
ATOM     19  O   UNL     1     -26.508 -11.717  18.969  0.00  0.00    -0.174 OA
ATOM     20  O   UNL     1     -27.942 -13.153  17.555  0.00  0.00    -0.174 OA
ATOM     21  C   UNL     1     -29.145 -11.105  18.854  0.00  0.00    +0.184 C 
ENDBRANCH  14  15
ENDBRANCH  12  14
ENDBRANCH   1  12
TORSDOF 4
ENDMDL
MODEL 4
REMARK VINA RESULT:    -3.340      1.893      2.550
REMARK INTER + INTRA:          -5.212
REMARK INTER:                  -4.430
REMARK INTRA:                  -0.782
REMARK UNBOUND:                -1.091
REMARK  Name = 
REMARK  7 active torsions:
REMARK  status: ('A' for Active; 'I' for Inactive)
REMARK    1  A    between atoms: C_1  and  N_2
REMARK    2  A    between atoms: N_2  and  C_3
REMARK    3  A    between atoms: N_2  and  C_14
REMARK    4  A    between atoms: C_3  and  C_4
REMARK    5  A    between atoms: C_4  and  N_5
REMARK    6  A    between atoms: C_9  and  C_10
REMARK    7  A    between atoms: C_9  and  C_11
REMARK                            x       y       z     vdW  Elec       q    Type
REMARK                         _______ _______ _______ _____ _____    ______ ____
ROOT
ATOM      1  C   UNL     1     -31.494  -8.111  19.814  0.00  0.00    +0.133 C 
ENDROOT
BRANCH   1   2
ATOM      2  N   UNL     1     -32.665  -8.365  18.977  0.00  0.00    -0.223 N 
ATOM      3  C   UNL     1     -34.005  -8.491  19.424  0.00  0.00    +0.309 C 
ATOM      4  O   UNL     1     -34.403  -8.100  20.553  0.00  0.00    -0.252 OA
ATOM      5  N   UNL     1     -34.849  -9.130  18.478  0.00  0.00    -0.285 N 
ATOM      6  C   UNL     1     -34.037  -9.507  17.320  0.00  0.00    +0.107 C 
ATOM      7  C   UNL     1     -34.042 -11.030  17.146  0.00  0.00    +0.041 C 
ATOM      8  C   UNL     1     -34.544  -8.793  16.063  0.00  0.00    +0.041 C 
ATOM      9  C   UNL     1     -32.667  -9.013  17.708  0.00  0.00    +0.246 C 
ATOM     10  O   UNL     1     -31.628  -9.167  17.012  0.00  0.00    -0.273 OA
ATOM     11  H   UNL     1     -35.868  -9.324  18.605  0.00  0.00    +0.151 HD
ENDBRANCH   1   2
BRANCH   1  12
ATOM     12  C   UNL     1     -31.284  -9.261  20.801  0.00  0.00    +0.104 C 
BRANCH  12  14
ATOM     13  C   UNL     1     -31.905 -11.588  20.598  0.00  0.00    +0.105 C 
ATOM     14  N   UNL     1     -31.033 -10.523  20.060  0.00  0.00    -0.299 NA
BRANCH  14  15
ATOM     15  C   UNL     1     -29.593 -10.909  20.096  0.00  0.00    +0.079 C 
ATOM     16  C   UNL     1     -29.373 -12.333  20.669  0.00  0.00    +0.043 C 
ATOM     17  C   UNL     1     -27.980 -12.817  20.281  0.00  0.00    +0.167 C 
ATOM     18  S   UNL     1     -27.670 -12.091  18.708  0.00  0.00    -0.029 S 
ATOM     19  O   UNL     1     -26.324 -11.425  18.663  0.00  0.00    -0.174 OA
ATOM     20  O   UNL     1     -27.806 -13.095  17.598  0.00  0.00    -0.174 OA
ATOM     21  C   UNL     1     -28.985 -10.911  18.678  0.00  0.00    +0.184 C 
ENDBRANCH  14  15
ENDBRANCH  12  14
ENDBRANCH   1  12
TORSDOF 4
ENDMDL
MODEL 5
REMARK VINA RESULT:    -3.336      1.438      2.312
REMARK INTER + INTRA:          -5.207
REMARK INTER:                  -4.578
REMARK INTRA:                  -0.629
REMARK UNBOUND:                -1.091
REMARK  Name = 
REMARK  7 active torsions:
REMARK  status: ('A' for Active; 'I' for Inactive)
REMARK    1  A    between atoms: C_1  and  N_2
REMARK    2  A    between atoms: N_2  and  C_3
REMARK    3  A    between atoms: N_2  and  C_14
REMARK    4  A    between atoms: C_3  and  C_4
REMARK    5  A    between atoms: C_4  and  N_5
REMARK    6  A    between atoms: C_9  and  C_10
REMARK    7  A    between atoms: C_9  and  C_11
REMARK                            x       y       z     vdW  Elec       q    Type
REMARK                         _______ _______ _______ _____ _____    ______ ____
ROOT
ATOM      1  C   UNL     1     -32.602 -11.638  20.152  0.00  0.00    +0.133 C 
ENDROOT
BRANCH   1   2
ATOM      2  N   UNL     1     -32.707 -11.295  18.736  0.00  0.00    -0.223 N 
ATOM      3  C   UNL     1     -32.683 -12.204  17.648  0.00  0.00    +0.309 C 
ATOM      4  O   UNL     1     -32.874 -13.443  17.770  0.00  0.00    -0.252 OA
ATOM      5  N   UNL     1     -32.393 -11.578  16.406  0.00  0.00    -0.285 N 
ATOM      6  C   UNL     1     -32.162 -10.155  16.654  0.00  0.00    +0.107 C 
ATOM      7  C   UNL     1     -30.730  -9.776  16.258  0.00  0.00    +0.041 C 
ATOM      8  C   UNL     1     -33.197  -9.312  15.901  0.00  0.00    +0.041 C 
ATOM      9  C   UNL     1     -32.357 -10.047  18.144  0.00  0.00    +0.246 C 
ATOM     10  O   UNL     1     -32.208  -8.987  18.810  0.00  0.00    -0.273 OA
ATOM     11  H   UNL     1     -32.325 -12.062  15.482  0.00  0.00    +0.151 HD
ENDBRANCH   1   2
BRANCH   1  12
ATOM     12  C   UNL     1     -31.388 -12.538  20.395  0.00  0.00    +0.104 C 
BRANCH  12  14
ATOM     13  C   UNL     1     -30.960 -10.543  21.690  0.00  0.00    +0.105 C 
ATOM     14  N   UNL     1     -30.492 -11.915  21.402  0.00  0.00    -0.299 NA
BRANCH  14  15
ATOM     15  C   UNL     1     -29.067 -11.938  20.965  0.00  0.00    +0.079 C 
ATOM     16  C   UNL     1     -28.443 -13.356  21.044  0.00  0.00    +0.043 C 
ATOM     17  C   UNL     1     -27.175 -13.389  20.199  0.00  0.00    +0.167 C 
ATOM     18  S   UNL     1     -27.489 -12.285  18.864  0.00  0.00    -0.029 S 
ATOM     19  O   UNL     1     -26.355 -11.319  18.669  0.00  0.00    -0.174 OA
ATOM     20  O   UNL     1     -27.785 -13.025  17.590  0.00  0.00    -0.174 OA
ATOM     21  C   UNL     1     -28.931 -11.483  19.497  0.00  0.00    +0.184 C 
ENDBRANCH  14  15
ENDBRANCH  12  14
ENDBRANCH   1  12
TORSDOF 4
ENDMDL
MODEL 6
REMARK VINA RESULT:    -3.064      2.211      5.165
REMARK INTER + INTRA:          -4.872
REMARK INTER:                  -3.819
REMARK INTRA:                  -1.053
REMARK UNBOUND:                -1.091
REMARK  Name = 
REMARK  7 active torsions:
REMARK  status: ('A' for Active; 'I' for Inactive)
REMARK    1  A    between atoms: C_1  and  N_2
REMARK    2  A    between atoms: N_2  and  C_3
REMARK    3  A    between atoms: N_2  and  C_14
REMARK    4  A    between atoms: C_3  and  C_4
REMARK    5  A    between atoms: C_4  and  N_5
REMARK    6  A    between atoms: C_9  and  C_10
REMARK    7  A    between atoms: C_9  and  C_11
REMARK                            x       y       z     vdW  Elec       q    Type
REMARK                         _______ _______ _______ _____ _____    ______ ____
ROOT
ATOM      1  C   UNL     1     -30.607  -9.378  20.166  0.00  0.00    +0.133 C 
ENDROOT
BRANCH   1   2
ATOM      2  N   UNL     1     -30.237 -10.710  19.692  0.00  0.00    -0.223 N 
ATOM      3  C   UNL     1     -30.481 -11.936  20.362  0.00  0.00    +0.309 C 
ATOM      4  O   UNL     1     -31.311 -12.066  21.300  0.00  0.00    -0.252 OA
ATOM      5  N   UNL     1     -29.669 -13.000  19.886  0.00  0.00    -0.285 N 
ATOM      6  C   UNL     1     -28.781 -12.471  18.850  0.00  0.00    +0.107 C 
ATOM      7  C   UNL     1     -27.318 -12.624  19.282  0.00  0.00    +0.041 C 
ATOM      8  C   UNL     1     -29.051 -13.170  17.514  0.00  0.00    +0.041 C 
ATOM      9  C   UNL     1     -29.178 -11.018  18.791  0.00  0.00    +0.246 C 
ATOM     10  O   UNL     1     -28.630 -10.157  18.052  0.00  0.00    -0.273 OA
ATOM     11  H   UNL     1     -29.686 -13.983  20.240  0.00  0.00    +0.151 HD
ENDBRANCH   1   2
BRANCH   1  12
ATOM     12  C   UNL     1     -32.106  -9.139  19.972  0.00  0.00    +0.104 C 
BRANCH  12  14
ATOM     13  C   UNL     1     -33.161  -7.160  19.070  0.00  0.00    +0.105 C 
ATOM     14  N   UNL     1     -32.334  -8.340  18.741  0.00  0.00    -0.299 NA
BRANCH  14  15
ATOM     15  C   UNL     1     -32.939  -9.160  17.653  0.00  0.00    +0.079 C 
ATOM     16  C   UNL     1     -31.893  -9.629  16.609  0.00  0.00    +0.043 C 
ATOM     17  C   UNL     1     -32.477 -10.783  15.802  0.00  0.00    +0.167 C 
ATOM     18  S   UNL     1     -33.521 -11.642  16.930  0.00  0.00    -0.029 S 
ATOM     19  O   UNL     1     -34.877 -11.901  16.337  0.00  0.00    -0.174 OA
ATOM     20  O   UNL     1     -32.892 -12.922  17.404  0.00  0.00    -0.174 OA
ATOM     21  C   UNL     1     -33.592 -10.437  18.221  0.00  0.00    +0.184 C 
ENDBRANCH  14  15
ENDBRANCH  12  14
ENDBRANCH   1  12
TORSDOF 4
ENDMDL
MODEL 7
REMARK VINA RESULT:    -3.022      2.297      4.784
REMARK INTER + INTRA:          -4.820
REMARK INTER:                  -3.645
REMARK INTRA:                  -1.175
REMARK UNBOUND:                -1.091
REMARK  Name = 
REMARK  7 active torsions:
REMARK  status: ('A' for Active; 'I' for Inactive)
REMARK    1  A    between atoms: C_1  and  N_2
REMARK    2  A    between atoms: N_2  and  C_3
REMARK    3  A    between atoms: N_2  and  C_14
REMARK    4  A    between atoms: C_3  and  C_4
REMARK    5  A    between atoms: C_4  and  N_5
REMARK    6  A    between atoms: C_9  and  C_10
REMARK    7  A    between atoms: C_9  and  C_11
REMARK                            x       y       z     vdW  Elec       q    Type
REMARK                         _______ _______ _______ _____ _____    ______ ____
ROOT
ATOM      1  C   UNL     1     -31.965 -10.805  20.582  0.00  0.00    +0.133 C 
ENDROOT
BRANCH   1   2
ATOM      2  N   UNL     1     -30.617 -11.154  20.140  0.00  0.00    -0.223 N 
ATOM      3  C   UNL     1     -29.695 -10.289  19.496  0.00  0.00    +0.309 C 
ATOM      4  O   UNL     1     -29.801  -9.034  19.493  0.00  0.00    -0.252 OA
ATOM      5  N   UNL     1     -28.654 -10.985  18.827  0.00  0.00    -0.285 N 
ATOM      6  C   UNL     1     -28.889 -12.421  18.983  0.00  0.00    +0.107 C 
ATOM      7  C   UNL     1     -29.107 -13.072  17.612  0.00  0.00    +0.041 C 
ATOM      8  C   UNL     1     -27.724 -13.070  19.737  0.00  0.00    +0.041 C 
ATOM      9  C   UNL     1     -30.153 -12.457  19.804  0.00  0.00    +0.246 C 
ATOM     10  O   UNL     1     -30.755 -13.511  20.144  0.00  0.00    -0.273 OA
ATOM     11  H   UNL     1     -27.874 -10.544  18.290  0.00  0.00    +0.151 HD
ENDBRANCH   1   2
BRANCH   1  12
ATOM     12  C   UNL     1     -32.961 -10.953  19.429  0.00  0.00    +0.104 C 
BRANCH  12  14
ATOM     13  C   UNL     1     -33.977  -8.812  18.958  0.00  0.00    +0.105 C 
ATOM     14  N   UNL     1     -32.908  -9.751  18.559  0.00  0.00    -0.299 NA
BRANCH  14  15
ATOM     15  C   UNL     1     -32.989 -10.109  17.115  0.00  0.00    +0.079 C 
ATOM     16  C   UNL     1     -31.625  -9.975  16.390  0.00  0.00    +0.043 C 
ATOM     17  C   UNL     1     -31.679 -10.748  15.077  0.00  0.00    +0.167 C 
ATOM     18  S   UNL     1     -32.742 -12.114  15.400  0.00  0.00    -0.029 S 
ATOM     19  O   UNL     1     -33.791 -12.260  14.333  0.00  0.00    -0.174 OA
ATOM     20  O   UNL     1     -31.969 -13.391  15.566  0.00  0.00    -0.174 OA
ATOM     21  C   UNL     1     -33.438 -11.573  16.931  0.00  0.00    +0.184 C 
ENDBRANCH  14  15
ENDBRANCH  12  14
ENDBRANCH   1  12
TORSDOF 4
ENDMDL
MODEL 8
REMARK VINA RESULT:    -2.983      2.356      3.521
REMARK INTER + INTRA:          -4.772
REMARK INTER:                  -3.640
REMARK INTRA:                  -1.132
REMARK UNBOUND:                -1.091
REMARK  Name = 
REMARK  7 active torsions:
REMARK  status: ('A' for Active; 'I' for Inactive)
REMARK    1  A    between atoms: C_1  and  N_2
REMARK    2  A    between atoms: N_2  and  C_3
REMARK    3  A    between atoms: N_2  and  C_14
REMARK    4  A    between atoms: C_3  and  C_4
REMARK    5  A    between atoms: C_4  and  N_5
REMARK    6  A    between atoms: C_9  and  C_10
REMARK    7  A    between atoms: C_9  and  C_11
REMARK                            x       y       z     vdW  Elec       q    Type
REMARK                         _______ _______ _______ _____ _____    ______ ____
ROOT
ATOM      1  C   UNL     1     -31.502 -11.816  14.843  0.00  0.00    +0.133 C 
ENDROOT
BRANCH   1   2
ATOM      2  N   UNL     1     -32.044 -10.671  15.572  0.00  0.00    -0.223 N 
ATOM      3  C   UNL     1     -31.300  -9.731  16.329  0.00  0.00    +0.309 C 
ATOM      4  O   UNL     1     -30.053  -9.581  16.226  0.00  0.00    -0.252 OA
ATOM      5  N   UNL     1     -32.101  -8.993  17.241  0.00  0.00    -0.285 N 
ATOM      6  C   UNL     1     -33.478  -9.478  17.137  0.00  0.00    +0.107 C 
ATOM      7  C   UNL     1     -33.929 -10.073  18.476  0.00  0.00    +0.041 C 
ATOM      8  C   UNL     1     -34.405  -8.347  16.680  0.00  0.00    +0.041 C 
ATOM      9  C   UNL     1     -33.368 -10.548  16.082  0.00  0.00    +0.246 C 
ATOM     10  O   UNL     1     -34.323 -11.275  15.698  0.00  0.00    -0.273 OA
ATOM     11  H   UNL     1     -31.756  -8.254  17.894  0.00  0.00    +0.151 HD
ENDBRANCH   1   2
BRANCH   1  12
ATOM     12  C   UNL     1     -31.314 -13.008  15.784  0.00  0.00    +0.104 C 
BRANCH  12  14
ATOM     13  C   UNL     1     -29.455 -14.464  15.271  0.00  0.00    +0.105 C 
ATOM     14  N   UNL     1     -29.866 -13.250  16.007  0.00  0.00    -0.299 NA
BRANCH  14  15
ATOM     15  C   UNL     1     -29.536 -13.339  17.458  0.00  0.00    +0.079 C 
ATOM     16  C   UNL     1     -28.583 -12.207  17.922  0.00  0.00    +0.043 C 
ATOM     17  C   UNL     1     -28.638 -12.101  19.442  0.00  0.00    +0.167 C 
ATOM     18  S   UNL     1     -30.291 -12.534  19.867  0.00  0.00    -0.029 S 
ATOM     19  O   UNL     1     -30.328 -13.553  20.970  0.00  0.00    -0.174 OA
ATOM     20  O   UNL     1     -31.105 -11.324  20.231  0.00  0.00    -0.174 OA
ATOM     21  C   UNL     1     -30.808 -13.221  18.323  0.00  0.00    +0.184 C 
ENDBRANCH  14  15
ENDBRANCH  12  14
ENDBRANCH   1  12
TORSDOF 4
ENDMDL
MODEL 9
REMARK VINA RESULT:    -2.946      2.179      5.153
REMARK INTER + INTRA:          -4.726
REMARK INTER:                  -3.376
REMARK INTRA:                  -1.350
REMARK UNBOUND:                -1.091
REMARK  Name = 
REMARK  7 active torsions:
REMARK  status: ('A' for Active; 'I' for Inactive)
REMARK    1  A    between atoms: C_1  and  N_2
REMARK    2  A    between atoms: N_2  and  C_3
REMARK    3  A    between atoms: N_2  and  C_14
REMARK    4  A    between atoms: C_3  and  C_4
REMARK    5  A    between atoms: C_4  and  N_5
REMARK    6  A    between atoms: C_9  and  C_10
REMARK    7  A    between atoms: C_9  and  C_11
REMARK                            x       y       z     vdW  Elec       q    Type
REMARK                         _______ _______ _______ _____ _____    ______ ____
ROOT
ATOM      1  C   UNL     1     -31.374 -12.162  16.533  0.00  0.00    +0.133 C 
ENDROOT
BRANCH   1   2
ATOM      2  N   UNL     1     -30.282 -12.585  17.407  0.00  0.00    -0.223 N 
ATOM      3  C   UNL     1     -30.153 -13.850  18.036  0.00  0.00    +0.309 C 
ATOM      4  O   UNL     1     -30.798 -14.873  17.685  0.00  0.00    -0.252 OA
ATOM      5  N   UNL     1     -29.241 -13.838  19.125  0.00  0.00    -0.285 N 
ATOM      6  C   UNL     1     -28.737 -12.474  19.286  0.00  0.00    +0.107 C 
ATOM      7  C   UNL     1     -29.132 -11.925  20.662  0.00  0.00    +0.041 C 
ATOM      8  C   UNL     1     -27.219 -12.442  19.081  0.00  0.00    +0.041 C 
ATOM      9  C   UNL     1     -29.448 -11.731  18.184  0.00  0.00    +0.246 C 
ATOM     10  O   UNL     1     -29.345 -10.493  17.975  0.00  0.00    -0.273 OA
ATOM     11  H   UNL     1     -28.999 -14.659  19.725  0.00  0.00    +0.151 HD
ENDBRANCH   1   2
BRANCH   1  12
ATOM     12  C   UNL     1     -32.669 -12.006  17.333  0.00  0.00    +0.104 C 
BRANCH  12  14
ATOM     13  C   UNL     1     -32.526  -9.998  15.996  0.00  0.00    +0.105 C 
ATOM     14  N   UNL     1     -33.235 -10.650  17.117  0.00  0.00    -0.299 NA
BRANCH  14  15
ATOM     15  C   UNL     1     -33.190  -9.828  18.359  0.00  0.00    +0.079 C 
ATOM     16  C   UNL     1     -32.784 -10.655  19.607  0.00  0.00    +0.043 C 
ATOM     17  C   UNL     1     -32.345  -9.703  20.714  0.00  0.00    +0.167 C 
ATOM     18  S   UNL     1     -31.602  -8.345  19.876  0.00  0.00    -0.029 S 
ATOM     19  O   UNL     1     -32.133  -7.031  20.376  0.00  0.00    -0.174 OA
ATOM     20  O   UNL     1     -30.103  -8.386  19.973  0.00  0.00    -0.174 OA
ATOM     21  C   UNL     1     -32.156  -8.691  18.234  0.00  0.00    +0.184 C 
ENDBRANCH  14  15
ENDBRANCH  12  14
ENDBRANCH   1  12
TORSDOF 4
ENDMDL
