MODEL 1
REMARK VINA RESULT:    -4.199      0.000      0.000
REMARK INTER + INTRA:          -6.564
REMARK INTER:                  -5.427
REMARK INTRA:                  -1.138
REMARK UNBOUND:                -1.138
REMARK  Name = 
REMARK  8 active torsions:
REMARK  status: ('A' for Active; 'I' for Inactive)
REMARK    1  A    between atoms: C_1  and  C_2
REMARK    2  A    between atoms: C_4  and  C_7
REMARK    3  A    between atoms: C_10  and  S_13
REMARK    4  A    between atoms: S_13  and  N_16
REMARK    5  A    between atoms: N_16  and  C_17
REMARK    6  A    between atoms: N_16  and  C_18
REMARK    7  A    between atoms: C_18  and  C_19
REMARK    8  A    between atoms: N_22  and  C_23
REMARK                            x       y       z     vdW  Elec       q    Type
REMARK                         _______ _______ _______ _____ _____    ______ ____
ROOT
ATOM      1  C   UNL     1     -31.174 -11.891  15.993  0.00  0.00    +0.004 A 
ATOM      2  C   UNL     1     -30.740 -13.175  16.372  0.00  0.00    +0.012 A 
ATOM      3  C   UNL     1     -29.758 -13.333  17.354  0.00  0.00    +0.029 A 
ATOM      4  C   UNL     1     -29.191 -12.212  17.970  0.00  0.00    +0.106 A 
ATOM      5  C   UNL     1     -29.620 -10.931  17.605  0.00  0.00    +0.029 A 
ATOM      6  C   UNL     1     -30.602 -10.769  16.623  0.00  0.00    +0.012 A 
ENDROOT
BRANCH   1  10
ATOM      7  C   UNL     1     -33.904 -12.628  11.938  0.00  0.00    +0.109 C 
ATOM      8  C   UNL     1     -33.395 -12.061  13.219  0.00  0.00    +0.193 A 
ATOM      9  N   UNL     1     -32.333 -12.562  13.883  0.00  0.00    -0.214 NA
ATOM     10  C   UNL     1     -32.217 -11.742  14.948  0.00  0.00    +0.109 A 
ATOM     11  C   UNL     1     -33.206 -10.778  14.884  0.00  0.00    +0.225 A 
ATOM     12  O   UNL     1     -33.911 -11.005  13.803  0.00  0.00    -0.448 OA
ENDBRANCH   1  10
BRANCH   4  13
ATOM     13  S   UNL     1     -27.971 -12.421  19.222  0.00  0.00    +0.061 S 
ATOM     14  O   UNL     1     -27.298 -13.753  19.029  0.00  0.00    -0.153 OA
ATOM     15  O   UNL     1     -26.933 -11.339  19.094  0.00  0.00    -0.153 OA
BRANCH  13  16
ATOM     16  N   UNL     1     -28.753 -12.350  20.784  0.00  0.00    -0.179 NA
ATOM     17  C   UNL     1     -27.994 -13.097  21.793  0.00  0.00    +0.131 C 
BRANCH  16  18
ATOM     18  C   UNL     1     -30.193 -12.688  20.736  0.00  0.00    +0.114 C 
BRANCH  18  19
ATOM     19  C   UNL     1     -31.151 -11.600  21.298  0.00  0.00    +0.020 C 
ATOM     20  C   UNL     1     -32.287 -11.320  20.331  0.00  0.00    +0.021 C 
ATOM     21  C   UNL     1     -32.672  -9.886  20.624  0.00  0.00    +0.084 C 
ATOM     22  N   UNL     1     -31.459  -9.187  21.073  0.00  0.00    -0.305 NA
ATOM     23  C   UNL     1     -30.899  -8.356  19.994  0.00  0.00    +0.104 C 
ATOM     24  C   UNL     1     -30.502 -10.224  21.503  0.00  0.00    +0.089 C 
ENDBRANCH  18  19
ENDBRANCH  16  18
ENDBRANCH  13  16
ENDBRANCH   4  13
TORSDOF 5
ENDMDL
MODEL 2
REMARK VINA RESULT:    -4.079      2.811      7.356
REMARK INTER + INTRA:          -6.409
REMARK INTER:                  -5.460
REMARK INTRA:                  -0.949
REMARK UNBOUND:                -1.138
REMARK  Name = 
REMARK  8 active torsions:
REMARK  status: ('A' for Active; 'I' for Inactive)
REMARK    1  A    between atoms: C_1  and  C_2
REMARK    2  A    between atoms: C_4  and  C_7
REMARK    3  A    between atoms: C_10  and  S_13
REMARK    4  A    between atoms: S_13  and  N_16
REMARK    5  A    between atoms: N_16  and  C_17
REMARK    6  A    between atoms: N_16  and  C_18
REMARK    7  A    between atoms: C_18  and  C_19
REMARK    8  A    between atoms: N_22  and  C_23
REMARK                            x       y       z     vdW  Elec       q    Type
REMARK                         _______ _______ _______ _____ _____    ______ ____
ROOT
ATOM      1  C   UNL     1     -29.224 -12.583  19.568  0.00  0.00    +0.004 A 
ATOM      2  C   UNL     1     -30.563 -13.016  19.600  0.00  0.00    +0.012 A 
ATOM      3  C   UNL     1     -31.558 -12.301  18.928  0.00  0.00    +0.029 A 
ATOM      4  C   UNL     1     -31.234 -11.141  18.216  0.00  0.00    +0.106 A 
ATOM      5  C   UNL     1     -29.905 -10.706  18.172  0.00  0.00    +0.029 A 
ATOM      6  C   UNL     1     -28.907 -11.418  18.843  0.00  0.00    +0.012 A 
ENDROOT
BRANCH   1  10
ATOM      7  C   UNL     1     -25.033 -14.994  20.596  0.00  0.00    +0.109 C 
ATOM      8  C   UNL     1     -26.383 -14.376  20.735  0.00  0.00    +0.193 A 
ATOM      9  N   UNL     1     -26.999 -13.707  19.739  0.00  0.00    -0.214 NA
ATOM     10  C   UNL     1     -28.181 -13.353  20.287  0.00  0.00    +0.109 A 
ATOM     11  C   UNL     1     -28.233 -13.824  21.587  0.00  0.00    +0.225 A 
ATOM     12  O   UNL     1     -27.108 -14.452  21.826  0.00  0.00    -0.448 OA
ENDBRANCH   1  10
BRANCH   4  13
ATOM     13  S   UNL     1     -32.490 -10.259  17.353  0.00  0.00    +0.061 S 
ATOM     14  O   UNL     1     -33.749 -10.274  18.178  0.00  0.00    -0.153 OA
ATOM     15  O   UNL     1     -32.058  -8.830  17.165  0.00  0.00    -0.153 OA
BRANCH  13  16
ATOM     16  N   UNL     1     -32.761 -11.036  15.810  0.00  0.00    -0.179 NA
ATOM     17  C   UNL     1     -33.857 -12.007  15.889  0.00  0.00    +0.131 C 
BRANCH  16  18
ATOM     18  C   UNL     1     -31.525 -11.568  15.195  0.00  0.00    +0.114 C 
BRANCH  18  19
ATOM     19  C   UNL     1     -31.522 -13.099  14.922  0.00  0.00    +0.020 C 
ATOM     20  C   UNL     1     -30.370 -13.780  15.638  0.00  0.00    +0.021 C 
ATOM     21  C   UNL     1     -30.075 -14.995  14.786  0.00  0.00    +0.084 C 
ATOM     22  N   UNL     1     -30.411 -14.650  13.396  0.00  0.00    -0.305 NA
ATOM     23  C   UNL     1     -29.196 -14.353  12.618  0.00  0.00    +0.104 C 
ATOM     24  C   UNL     1     -31.312 -13.483  13.451  0.00  0.00    +0.089 C 
ENDBRANCH  18  19
ENDBRANCH  16  18
ENDBRANCH  13  16
ENDBRANCH   4  13
TORSDOF 5
ENDMDL
MODEL 3
REMARK VINA RESULT:    -4.034      2.315      6.396
REMARK INTER + INTRA:          -6.350
REMARK INTER:                  -4.819
REMARK INTRA:                  -1.531
REMARK UNBOUND:                -1.138
REMARK  Name = 
REMARK  8 active torsions:
REMARK  status: ('A' for Active; 'I' for Inactive)
REMARK    1  A    between atoms: C_1  and  C_2
REMARK    2  A    between atoms: C_4  and  C_7
REMARK    3  A    between atoms: C_10  and  S_13
REMARK    4  A    between atoms: S_13  and  N_16
REMARK    5  A    between atoms: N_16  and  C_17
REMARK    6  A    between atoms: N_16  and  C_18
REMARK    7  A    between atoms: C_18  and  C_19
REMARK    8  A    between atoms: N_22  and  C_23
REMARK                            x       y       z     vdW  Elec       q    Type
REMARK                         _______ _______ _______ _____ _____    ______ ____
ROOT
ATOM      1  C   UNL     1     -28.916 -12.750  18.950  0.00  0.00    +0.004 A 
ATOM      2  C   UNL     1     -28.750 -11.392  18.621  0.00  0.00    +0.012 A 
ATOM      3  C   UNL     1     -29.545 -10.797  17.637  0.00  0.00    +0.029 A 
ATOM      4  C   UNL     1     -30.513 -11.549  16.963  0.00  0.00    +0.106 A 
ATOM      5  C   UNL     1     -30.691 -12.899  17.288  0.00  0.00    +0.029 A 
ATOM      6  C   UNL     1     -29.898 -13.497  18.272  0.00  0.00    +0.012 A 
ENDROOT
BRANCH   1  10
ATOM      7  C   UNL     1     -25.038 -14.739  21.285  0.00  0.00    +0.109 C 
ATOM      8  C   UNL     1     -26.402 -14.207  21.003  0.00  0.00    +0.193 A 
ATOM      9  N   UNL     1     -26.766 -13.690  19.812  0.00  0.00    -0.214 NA
ATOM     10  C   UNL     1     -28.063 -13.366  19.997  0.00  0.00    +0.109 A 
ATOM     11  C   UNL     1     -28.432 -13.703  21.287  0.00  0.00    +0.225 A 
ATOM     12  O   UNL     1     -27.383 -14.221  21.876  0.00  0.00    -0.448 OA
ENDBRANCH   1  10
BRANCH   4  13
ATOM     13  S   UNL     1     -31.525 -10.786  15.741  0.00  0.00    +0.061 S 
ATOM     14  O   UNL     1     -30.934  -9.448  15.386  0.00  0.00    -0.153 OA
ATOM     15  O   UNL     1     -31.546 -11.642  14.504  0.00  0.00    -0.153 OA
BRANCH  13  16
ATOM     16  N   UNL     1     -33.137 -10.591  16.390  0.00  0.00    -0.179 NA
ATOM     17  C   UNL     1     -34.134 -11.252  15.543  0.00  0.00    +0.131 C 
BRANCH  16  18
ATOM     18  C   UNL     1     -33.467  -9.190  16.733  0.00  0.00    +0.114 C 
BRANCH  18  19
ATOM     19  C   UNL     1     -33.531  -8.874  18.254  0.00  0.00    +0.020 C 
ATOM     20  C   UNL     1     -32.171  -8.457  18.784  0.00  0.00    +0.021 C 
ATOM     21  C   UNL     1     -32.207  -8.859  20.242  0.00  0.00    +0.084 C 
ATOM     22  N   UNL     1     -33.075 -10.040  20.352  0.00  0.00    -0.305 NA
ATOM     23  C   UNL     1     -32.278 -11.271  20.484  0.00  0.00    +0.104 C 
ATOM     24  C   UNL     1     -33.912 -10.070  19.137  0.00  0.00    +0.089 C 
ENDBRANCH  18  19
ENDBRANCH  16  18
ENDBRANCH  13  16
ENDBRANCH   4  13
TORSDOF 5
ENDMDL
MODEL 4
REMARK VINA RESULT:    -3.996      2.303      3.686
REMARK INTER + INTRA:          -6.302
REMARK INTER:                  -4.873
REMARK INTRA:                  -1.429
REMARK UNBOUND:                -1.138
REMARK  Name = 
REMARK  8 active torsions:
REMARK  status: ('A' for Active; 'I' for Inactive)
REMARK    1  A    between atoms: C_1  and  C_2
REMARK    2  A    between atoms: C_4  and  C_7
REMARK    3  A    between atoms: C_10  and  S_13
REMARK    4  A    between atoms: S_13  and  N_16
REMARK    5  A    between atoms: N_16  and  C_17
REMARK    6  A    between atoms: N_16  and  C_18
REMARK    7  A    between atoms: C_18  and  C_19
REMARK    8  A    between atoms: N_22  and  C_23
REMARK                            x       y       z     vdW  Elec       q    Type
REMARK                         _______ _______ _______ _____ _____    ______ ____
ROOT
ATOM      1  C   UNL     1     -32.862 -10.615  15.872  0.00  0.00    +0.004 A 
ATOM      2  C   UNL     1     -31.539 -10.147  15.971  0.00  0.00    +0.012 A 
ATOM      3  C   UNL     1     -31.059  -9.619  17.173  0.00  0.00    +0.029 A 
ATOM      4  C   UNL     1     -31.894  -9.546  18.294  0.00  0.00    +0.106 A 
ATOM      5  C   UNL     1     -33.209 -10.017  18.208  0.00  0.00    +0.029 A 
ATOM      6  C   UNL     1     -33.692 -10.545  17.007  0.00  0.00    +0.012 A 
ENDROOT
BRANCH   1  10
ATOM      7  C   UNL     1     -33.443 -13.552  11.938  0.00  0.00    +0.109 C 
ATOM      8  C   UNL     1     -33.614 -12.433  12.908  0.00  0.00    +0.193 A 
ATOM      9  N   UNL     1     -32.897 -12.320  14.045  0.00  0.00    -0.214 NA
ATOM     10  C   UNL     1     -33.354 -11.172  14.588  0.00  0.00    +0.109 A 
ATOM     11  C   UNL     1     -34.323 -10.636  13.759  0.00  0.00    +0.225 A 
ATOM     12  O   UNL     1     -34.454 -11.439  12.732  0.00  0.00    -0.448 OA
ENDBRANCH   1  10
BRANCH   4  13
ATOM     13  S   UNL     1     -31.275  -8.901  19.811  0.00  0.00    +0.061 S 
ATOM     14  O   UNL     1     -29.848  -8.468  19.609  0.00  0.00    -0.153 OA
ATOM     15  O   UNL     1     -32.087  -7.699  20.210  0.00  0.00    -0.153 OA
BRANCH  13  16
ATOM     16  N   UNL     1     -31.370 -10.150  21.031  0.00  0.00    -0.179 NA
ATOM     17  C   UNL     1     -32.356  -9.810  22.062  0.00  0.00    +0.131 C 
BRANCH  16  18
ATOM     18  C   UNL     1     -30.050 -10.552  21.565  0.00  0.00    +0.114 C 
BRANCH  18  19
ATOM     19  C   UNL     1     -29.505 -11.911  21.040  0.00  0.00    +0.020 C 
ATOM     20  C   UNL     1     -28.634 -11.714  19.813  0.00  0.00    +0.021 C 
ATOM     21  C   UNL     1     -28.770 -13.016  19.054  0.00  0.00    +0.084 C 
ATOM     22  N   UNL     1     -30.112 -13.550  19.332  0.00  0.00    -0.305 NA
ATOM     23  C   UNL     1     -31.023 -13.303  18.203  0.00  0.00    +0.104 C 
ATOM     24  C   UNL     1     -30.588 -12.888  20.562  0.00  0.00    +0.089 C 
ENDBRANCH  18  19
ENDBRANCH  16  18
ENDBRANCH  13  16
ENDBRANCH   4  13
TORSDOF 5
ENDMDL
MODEL 5
REMARK VINA RESULT:    -3.806      2.904      4.396
REMARK INTER + INTRA:          -6.056
REMARK INTER:                  -4.789
REMARK INTRA:                  -1.267
REMARK UNBOUND:                -1.138
REMARK  Name = 
REMARK  8 active torsions:
REMARK  status: ('A' for Active; 'I' for Inactive)
REMARK    1  A    between atoms: C_1  and  C_2
REMARK    2  A    between atoms: C_4  and  C_7
REMARK    3  A    between atoms: C_10  and  S_13
REMARK    4  A    between atoms: S_13  and  N_16
REMARK    5  A    between atoms: N_16  and  C_17
REMARK    6  A    between atoms: N_16  and  C_18
REMARK    7  A    between atoms: C_18  and  C_19
REMARK    8  A    between atoms: N_22  and  C_23
REMARK                            x       y       z     vdW  Elec       q    Type
REMARK                         _______ _______ _______ _____ _____    ______ ____
ROOT
ATOM      1  C   UNL     1     -32.121 -11.559  15.307  0.00  0.00    +0.004 A 
ATOM      2  C   UNL     1     -31.225 -10.549  15.700  0.00  0.00    +0.012 A 
ATOM      3  C   UNL     1     -31.534  -9.700  16.767  0.00  0.00    +0.029 A 
ATOM      4  C   UNL     1     -32.745  -9.843  17.453  0.00  0.00    +0.106 A 
ATOM      5  C   UNL     1     -33.640 -10.850  17.074  0.00  0.00    +0.029 A 
ATOM      6  C   UNL     1     -33.333 -11.701  16.008  0.00  0.00    +0.012 A 
ENDROOT
BRANCH   1  10
ATOM      7  C   UNL     1     -29.815 -14.904  12.489  0.00  0.00    +0.109 C 
ATOM      8  C   UNL     1     -30.799 -13.891  12.968  0.00  0.00    +0.193 A 
ATOM      9  N   UNL     1     -30.722 -13.293  14.174  0.00  0.00    -0.214 NA
ATOM     10  C   UNL     1     -31.777 -12.452  14.172  0.00  0.00    +0.109 A 
ATOM     11  C   UNL     1     -32.446 -12.571  12.967  0.00  0.00    +0.225 A 
ATOM     12  O   UNL     1     -31.812 -13.465  12.250  0.00  0.00    -0.448 OA
ENDBRANCH   1  10
BRANCH   4  13
ATOM     13  S   UNL     1     -33.116  -8.784  18.810  0.00  0.00    +0.061 S 
ATOM     14  O   UNL     1     -32.094  -7.681  18.860  0.00  0.00    -0.153 OA
ATOM     15  O   UNL     1     -34.474  -8.168  18.606  0.00  0.00    -0.153 OA
BRANCH  13  16
ATOM     16  N   UNL     1     -33.075  -9.725  20.283  0.00  0.00    -0.179 NA
ATOM     17  C   UNL     1     -34.043  -9.221  21.263  0.00  0.00    +0.131 C 
BRANCH  16  18
ATOM     18  C   UNL     1     -31.710  -9.913  20.822  0.00  0.00    +0.114 C 
BRANCH  18  19
ATOM     19  C   UNL     1     -31.305 -11.387  21.109  0.00  0.00    +0.020 C 
ATOM     20  C   UNL     1     -29.800 -11.565  21.034  0.00  0.00    +0.021 C 
ATOM     21  C   UNL     1     -29.621 -13.014  20.637  0.00  0.00    +0.084 C 
ATOM     22  N   UNL     1     -30.780 -13.391  19.814  0.00  0.00    -0.305 NA
ATOM     23  C   UNL     1     -30.428 -13.410  18.384  0.00  0.00    +0.104 C 
ATOM     24  C   UNL     1     -31.841 -12.404  20.092  0.00  0.00    +0.089 C 
ENDBRANCH  18  19
ENDBRANCH  16  18
ENDBRANCH  13  16
ENDBRANCH   4  13
TORSDOF 5
ENDMDL
MODEL 6
REMARK VINA RESULT:    -3.515      3.022      7.079
REMARK INTER + INTRA:          -5.681
REMARK INTER:                  -4.766
REMARK INTRA:                  -0.915
REMARK UNBOUND:                -1.138
REMARK  Name = 
REMARK  8 active torsions:
REMARK  status: ('A' for Active; 'I' for Inactive)
REMARK    1  A    between atoms: C_1  and  C_2
REMARK    2  A    between atoms: C_4  and  C_7
REMARK    3  A    between atoms: C_10  and  S_13
REMARK    4  A    between atoms: S_13  and  N_16
REMARK    5  A    between atoms: N_16  and  C_17
REMARK    6  A    between atoms: N_16  and  C_18
REMARK    7  A    between atoms: C_18  and  C_19
REMARK    8  A    between atoms: N_22  and  C_23
REMARK                            x       y       z     vdW  Elec       q    Type
REMARK                         _______ _______ _______ _____ _____    ______ ____
ROOT
ATOM      1  C   UNL     1     -29.276 -11.792  20.369  0.00  0.00    +0.004 A 
ATOM      2  C   UNL     1     -30.425 -11.669  21.172  0.00  0.00    +0.012 A 
ATOM      3  C   UNL     1     -31.389 -10.696  20.889  0.00  0.00    +0.029 A 
ATOM      4  C   UNL     1     -31.218  -9.830  19.804  0.00  0.00    +0.106 A 
ATOM      5  C   UNL     1     -30.081  -9.949  18.995  0.00  0.00    +0.029 A 
ATOM      6  C   UNL     1     -29.116 -10.921  19.275  0.00  0.00    +0.012 A 
ENDROOT
BRANCH   1  10
ATOM      7  C   UNL     1     -25.055 -14.367  20.461  0.00  0.00    +0.109 C 
ATOM      8  C   UNL     1     -26.454 -13.928  20.735  0.00  0.00    +0.193 A 
ATOM      9  N   UNL     1     -27.006 -12.823  20.193  0.00  0.00    -0.214 NA
ATOM     10  C   UNL     1     -28.263 -12.830  20.684  0.00  0.00    +0.109 A 
ATOM     11  C   UNL     1     -28.422 -13.937  21.498  0.00  0.00    +0.225 A 
ATOM     12  O   UNL     1     -27.287 -14.592  21.502  0.00  0.00    -0.448 OA
ENDBRANCH   1  10
BRANCH   4  13
ATOM     13  S   UNL     1     -32.447  -8.623  19.441  0.00  0.00    +0.061 S 
ATOM     14  O   UNL     1     -33.405  -8.541  20.598  0.00  0.00    -0.153 OA
ATOM     15  O   UNL     1     -31.792  -7.279  19.268  0.00  0.00    -0.153 OA
BRANCH  13  16
ATOM     16  N   UNL     1     -33.287  -9.098  17.983  0.00  0.00    -0.179 NA
ATOM     17  C   UNL     1     -34.347  -8.144  17.645  0.00  0.00    +0.131 C 
BRANCH  16  18
ATOM     18  C   UNL     1     -33.724 -10.512  17.991  0.00  0.00    +0.114 C 
BRANCH  18  19
ATOM     19  C   UNL     1     -33.208 -11.375  16.805  0.00  0.00    +0.020 C 
ATOM     20  C   UNL     1     -32.220 -10.601  15.953  0.00  0.00    +0.021 C 
ATOM     21  C   UNL     1     -32.356 -11.219  14.579  0.00  0.00    +0.084 C 
ATOM     22  N   UNL     1     -33.745 -11.685  14.441  0.00  0.00    -0.305 NA
ATOM     23  C   UNL     1     -34.535 -10.754  13.621  0.00  0.00    +0.104 C 
ATOM     24  C   UNL     1     -34.294 -11.798  15.806  0.00  0.00    +0.089 C 
ENDBRANCH  18  19
ENDBRANCH  16  18
ENDBRANCH  13  16
ENDBRANCH   4  13
TORSDOF 5
ENDMDL
MODEL 7
REMARK VINA RESULT:    -3.287      2.832      6.252
REMARK INTER + INTRA:          -5.386
REMARK INTER:                  -4.486
REMARK INTRA:                  -0.900
REMARK UNBOUND:                -1.138
REMARK  Name = 
REMARK  8 active torsions:
REMARK  status: ('A' for Active; 'I' for Inactive)
REMARK    1  A    between atoms: C_1  and  C_2
REMARK    2  A    between atoms: C_4  and  C_7
REMARK    3  A    between atoms: C_10  and  S_13
REMARK    4  A    between atoms: S_13  and  N_16
REMARK    5  A    between atoms: N_16  and  C_17
REMARK    6  A    between atoms: N_16  and  C_18
REMARK    7  A    between atoms: C_18  and  C_19
REMARK    8  A    between atoms: N_22  and  C_23
REMARK                            x       y       z     vdW  Elec       q    Type
REMARK                         _______ _______ _______ _____ _____    ______ ____
ROOT
ATOM      1  C   UNL     1     -29.958 -12.090  17.996  0.00  0.00    +0.004 A 
ATOM      2  C   UNL     1     -31.130 -12.806  18.301  0.00  0.00    +0.012 A 
ATOM      3  C   UNL     1     -32.339 -12.494  17.672  0.00  0.00    +0.029 A 
ATOM      4  C   UNL     1     -32.397 -11.459  16.732  0.00  0.00    +0.106 A 
ATOM      5  C   UNL     1     -31.235 -10.746  16.416  0.00  0.00    +0.029 A 
ATOM      6  C   UNL     1     -30.025 -11.056  17.043  0.00  0.00    +0.012 A 
ENDROOT
BRANCH   1  10
ATOM      7  C   UNL     1     -26.642 -14.273  20.943  0.00  0.00    +0.109 C 
ATOM      8  C   UNL     1     -27.260 -13.374  19.925  0.00  0.00    +0.193 A 
ATOM      9  N   UNL     1     -28.565 -13.418  19.590  0.00  0.00    -0.214 NA
ATOM     10  C   UNL     1     -28.684 -12.435  18.673  0.00  0.00    +0.109 A 
ATOM     11  C   UNL     1     -27.451 -11.834  18.494  0.00  0.00    +0.225 A 
ATOM     12  O   UNL     1     -26.598 -12.438  19.285  0.00  0.00    -0.448 OA
ENDBRANCH   1  10
BRANCH   4  13
ATOM     13  S   UNL     1     -33.919 -11.087  15.927  0.00  0.00    +0.061 S 
ATOM     14  O   UNL     1     -33.655 -10.875  14.461  0.00  0.00    -0.153 OA
ATOM     15  O   UNL     1     -34.861 -12.251  16.079  0.00  0.00    -0.153 OA
BRANCH  13  16
ATOM     16  N   UNL     1     -34.593  -9.642  16.644  0.00  0.00    -0.179 NA
ATOM     17  C   UNL     1     -34.312  -8.461  15.822  0.00  0.00    +0.131 C 
BRANCH  16  18
ATOM     18  C   UNL     1     -34.250  -9.480  18.074  0.00  0.00    +0.114 C 
BRANCH  18  19
ATOM     19  C   UNL     1     -33.614  -8.113  18.456  0.00  0.00    +0.020 C 
ATOM     20  C   UNL     1     -32.251  -8.303  19.096  0.00  0.00    +0.021 C 
ATOM     21  C   UNL     1     -32.095  -7.095  19.993  0.00  0.00    +0.084 C 
ATOM     22  N   UNL     1     -33.439  -6.707  20.446  0.00  0.00    -0.305 NA
ATOM     23  C   UNL     1     -33.680  -7.155  21.828  0.00  0.00    +0.104 C 
ATOM     24  C   UNL     1     -34.400  -7.318  19.508  0.00  0.00    +0.089 C 
ENDBRANCH  18  19
ENDBRANCH  16  18
ENDBRANCH  13  16
ENDBRANCH   4  13
TORSDOF 5
ENDMDL
MODEL 8
REMARK VINA RESULT:    -3.171      2.661      6.246
REMARK INTER + INTRA:          -5.235
REMARK INTER:                  -4.488
REMARK INTRA:                  -0.747
REMARK UNBOUND:                -1.138
REMARK  Name = 
REMARK  8 active torsions:
REMARK  status: ('A' for Active; 'I' for Inactive)
REMARK    1  A    between atoms: C_1  and  C_2
REMARK    2  A    between atoms: C_4  and  C_7
REMARK    3  A    between atoms: C_10  and  S_13
REMARK    4  A    between atoms: S_13  and  N_16
REMARK    5  A    between atoms: N_16  and  C_17
REMARK    6  A    between atoms: N_16  and  C_18
REMARK    7  A    between atoms: C_18  and  C_19
REMARK    8  A    between atoms: N_22  and  C_23
REMARK                            x       y       z     vdW  Elec       q    Type
REMARK                         _______ _______ _______ _____ _____    ______ ____
ROOT
ATOM      1  C   UNL     1     -30.636 -10.159  19.504  0.00  0.00    +0.004 A 
ATOM      2  C   UNL     1     -31.423 -11.306  19.707  0.00  0.00    +0.012 A 
ATOM      3  C   UNL     1     -31.280 -12.424  18.880  0.00  0.00    +0.029 A 
ATOM      4  C   UNL     1     -30.351 -12.411  17.833  0.00  0.00    +0.106 A 
ATOM      5  C   UNL     1     -29.558 -11.276  17.627  0.00  0.00    +0.029 A 
ATOM      6  C   UNL     1     -29.699 -10.157  18.453  0.00  0.00    +0.012 A 
ENDROOT
BRANCH   1  10
ATOM      7  C   UNL     1     -30.191  -5.630  21.437  0.00  0.00    +0.109 C 
ATOM      8  C   UNL     1     -30.622  -7.040  21.215  0.00  0.00    +0.193 A 
ATOM      9  N   UNL     1     -30.188  -7.797  20.187  0.00  0.00    -0.214 NA
ATOM     10  C   UNL     1     -30.801  -8.981  20.391  0.00  0.00    +0.109 A 
ATOM     11  C   UNL     1     -31.576  -8.896  21.534  0.00  0.00    +0.225 A 
ATOM     12  O   UNL     1     -31.439  -7.685  22.016  0.00  0.00    -0.448 OA
ENDBRANCH   1  10
BRANCH   4  13
ATOM     13  S   UNL     1     -30.161 -13.831  16.809  0.00  0.00    +0.061 S 
ATOM     14  O   UNL     1     -28.710 -13.970  16.435  0.00  0.00    -0.153 OA
ATOM     15  O   UNL     1     -30.577 -15.057  17.575  0.00  0.00    -0.153 OA
BRANCH  13  16
ATOM     16  N   UNL     1     -31.146 -13.626  15.379  0.00  0.00    -0.179 NA
ATOM     17  C   UNL     1     -30.557 -14.315  14.226  0.00  0.00    +0.131 C 
BRANCH  16  18
ATOM     18  C   UNL     1     -31.518 -12.218  15.118  0.00  0.00    +0.114 C 
BRANCH  18  19
ATOM     19  C   UNL     1     -33.042 -11.949  14.964  0.00  0.00    +0.020 C 
ATOM     20  C   UNL     1     -33.306 -10.510  14.564  0.00  0.00    +0.021 C 
ATOM     21  C   UNL     1     -34.685 -10.223  15.117  0.00  0.00    +0.084 C 
ATOM     22  N   UNL     1     -34.853 -11.039  16.329  0.00  0.00    -0.305 NA
ATOM     23  C   UNL     1     -34.675 -10.224  17.542  0.00  0.00    +0.104 C 
ATOM     24  C   UNL     1     -33.852 -12.121  16.257  0.00  0.00    +0.089 C 
ENDBRANCH  18  19
ENDBRANCH  16  18
ENDBRANCH  13  16
ENDBRANCH   4  13
TORSDOF 5
ENDMDL
