MODEL 1
REMARK VINA RESULT:    -5.424      0.000      0.000
REMARK INTER + INTRA:          -7.587
REMARK INTER:                  -6.851
REMARK INTRA:                  -0.735
REMARK UNBOUND:                -0.735
REMARK  Name = 
REMARK  6 active torsions:
REMARK  status: ('A' for Active; 'I' for Inactive)
REMARK    1  A    between atoms: C_1  and  C_2
REMARK    2  A    between atoms: C_4  and  N_11
REMARK    3  A    between atoms: C_7  and  C_8
REMARK    4  A    between atoms: C_8  and  O_10
REMARK    5  A    between atoms: N_11  and  S_12
REMARK    6  A    between atoms: S_12  and  C_15
REMARK                            x       y       z     vdW  Elec       q    Type
REMARK                         _______ _______ _______ _____ _____    ______ ____
ROOT
ATOM      1  N   UNL     1     -32.315 -13.189  18.103  0.00  0.00    -0.216 N 
ATOM      2  H   UNL     1     -33.084 -13.794  18.468  0.00  0.00    +0.174 HD
ENDROOT
BRANCH   1   6
ATOM      3  C   UNL     1     -32.175 -12.089  13.242  0.00  0.00    +0.044 C 
ATOM      4  C   UNL     1     -31.698 -12.945  14.388  0.00  0.00    -0.035 A 
ATOM      5  C   UNL     1     -32.237 -12.710  15.665  0.00  0.00    +0.028 A 
ATOM      6  C   UNL     1     -31.795 -13.436  16.784  0.00  0.00    +0.048 A 
ATOM      7  C   UNL     1     -30.825 -14.426  16.608  0.00  0.00    +0.025 A 
ATOM      8  C   UNL     1     -30.295 -14.687  15.345  0.00  0.00    +0.017 A 
ATOM      9  C   UNL     1     -30.725 -13.966  14.217  0.00  0.00    +0.062 A 
BRANCH   9  10
ATOM     10  C   UNL     1     -30.141 -14.311  12.894  0.00  0.00    +0.337 C 
ATOM     11  O   UNL     1     -28.964 -13.956  12.614  0.00  0.00    -0.245 OA
BRANCH  10  12
ATOM     12  O   UNL     1     -30.860 -15.057  11.965  0.00  0.00    -0.477 OA
ATOM     13  H   UNL     1     -30.384 -15.624  11.272  0.00  0.00    +0.295 HD
ENDBRANCH  10  12
ENDBRANCH   9  10
ENDBRANCH   1   6
BRANCH   1  14
ATOM     14  S   UNL     1     -31.620 -12.052  19.217  0.00  0.00    +0.072 S 
ATOM     15  O   UNL     1     -31.862 -10.657  18.710  0.00  0.00    -0.150 OA
ATOM     16  O   UNL     1     -32.276 -12.205  20.560  0.00  0.00    -0.150 OA
BRANCH  14  17
ATOM     17  C   UNL     1     -29.895 -12.365  19.390  0.00  0.00    +0.112 A 
ATOM     18  C   UNL     1     -28.982 -11.703  18.556  0.00  0.00    +0.032 A 
ATOM     19  C   UNL     1     -27.608 -11.925  18.698  0.00  0.00    +0.051 A 
ATOM     20  C   UNL     1     -27.145 -12.814  19.672  0.00  0.00    +0.162 A 
ATOM     21  O   UNL     1     -25.777 -13.071  19.814  0.00  0.00    -0.485 OA
ATOM     22  C   UNL     1     -25.311 -14.166  20.608  0.00  0.00    +0.270 C 
ATOM     23  C   UNL     1     -26.174 -14.314  21.867  0.00  0.00    +0.270 C 
ATOM     24  O   UNL     1     -27.562 -14.307  21.521  0.00  0.00    -0.485 OA
ATOM     25  C   UNL     1     -28.052 -13.458  20.523  0.00  0.00    +0.164 A 
ATOM     26  C   UNL     1     -29.426 -13.250  20.373  0.00  0.00    +0.078 A 
ENDBRANCH  14  17
ENDBRANCH   1  14
TORSDOF 5
ENDMDL
MODEL 2
REMARK VINA RESULT:    -4.975      1.569      2.573
REMARK INTER + INTRA:          -7.019
REMARK INTER:                  -6.689
REMARK INTRA:                  -0.330
REMARK UNBOUND:                -0.735
REMARK  Name = 
REMARK  6 active torsions:
REMARK  status: ('A' for Active; 'I' for Inactive)
REMARK    1  A    between atoms: C_1  and  C_2
REMARK    2  A    between atoms: C_4  and  N_11
REMARK    3  A    between atoms: C_7  and  C_8
REMARK    4  A    between atoms: C_8  and  O_10
REMARK    5  A    between atoms: N_11  and  S_12
REMARK    6  A    between atoms: S_12  and  C_15
REMARK                            x       y       z     vdW  Elec       q    Type
REMARK                         _______ _______ _______ _____ _____    ______ ____
ROOT
ATOM      1  N   UNL     1     -31.415 -10.710  17.491  0.00  0.00    -0.216 N 
ATOM      2  H   UNL     1     -32.272 -10.562  18.069  0.00  0.00    +0.174 HD
ENDROOT
BRANCH   1   6
ATOM      3  C   UNL     1     -30.257 -14.747  14.803  0.00  0.00    +0.044 C 
ATOM      4  C   UNL     1     -30.969 -13.421  14.904  0.00  0.00    -0.035 A 
ATOM      5  C   UNL     1     -30.836 -12.682  16.092  0.00  0.00    +0.028 A 
ATOM      6  C   UNL     1     -31.516 -11.465  16.271  0.00  0.00    +0.048 A 
ATOM      7  C   UNL     1     -32.312 -10.977  15.231  0.00  0.00    +0.025 A 
ATOM      8  C   UNL     1     -32.439 -11.686  14.037  0.00  0.00    +0.017 A 
ATOM      9  C   UNL     1     -31.767 -12.907  13.847  0.00  0.00    +0.062 A 
BRANCH   9  10
ATOM     10  C   UNL     1     -31.921 -13.601  12.540  0.00  0.00    +0.337 C 
ATOM     11  O   UNL     1     -30.906 -14.050  11.943  0.00  0.00    -0.245 OA
BRANCH  10  12
ATOM     12  O   UNL     1     -33.178 -13.799  11.977  0.00  0.00    -0.477 OA
ATOM     13  H   UNL     1     -33.275 -14.162  11.035  0.00  0.00    +0.295 HD
ENDBRANCH  10  12
ENDBRANCH   9  10
ENDBRANCH   1   6
BRANCH   1  14
ATOM     14  S   UNL     1     -29.911 -10.171  18.171  0.00  0.00    +0.072 S 
ATOM     15  O   UNL     1     -28.971  -9.805  17.056  0.00  0.00    -0.150 OA
ATOM     16  O   UNL     1     -30.155  -8.958  19.023  0.00  0.00    -0.150 OA
BRANCH  14  17
ATOM     17  C   UNL     1     -29.223 -11.442  19.178  0.00  0.00    +0.112 A 
ATOM     18  C   UNL     1     -30.045 -12.140  20.074  0.00  0.00    +0.032 A 
ATOM     19  C   UNL     1     -29.516 -13.166  20.864  0.00  0.00    +0.051 A 
ATOM     20  C   UNL     1     -28.163 -13.494  20.762  0.00  0.00    +0.162 A 
ATOM     21  O   UNL     1     -27.607 -14.499  21.561  0.00  0.00    -0.485 OA
ATOM     22  C   UNL     1     -26.190 -14.659  21.666  0.00  0.00    +0.270 C 
ATOM     23  C   UNL     1     -25.526 -14.416  20.304  0.00  0.00    +0.270 C 
ATOM     24  O   UNL     1     -26.001 -13.194  19.732  0.00  0.00    -0.485 OA
ATOM     25  C   UNL     1     -27.343 -12.817  19.851  0.00  0.00    +0.164 A 
ATOM     26  C   UNL     1     -27.865 -11.780  19.072  0.00  0.00    +0.078 A 
ENDBRANCH  14  17
ENDBRANCH   1  14
TORSDOF 5
ENDMDL
MODEL 3
REMARK VINA RESULT:    -4.918      2.495      4.500
REMARK INTER + INTRA:          -6.947
REMARK INTER:                  -6.323
REMARK INTRA:                  -0.624
REMARK UNBOUND:                -0.735
REMARK  Name = 
REMARK  6 active torsions:
REMARK  status: ('A' for Active; 'I' for Inactive)
REMARK    1  A    between atoms: C_1  and  C_2
REMARK    2  A    between atoms: C_4  and  N_11
REMARK    3  A    between atoms: C_7  and  C_8
REMARK    4  A    between atoms: C_8  and  O_10
REMARK    5  A    between atoms: N_11  and  S_12
REMARK    6  A    between atoms: S_12  and  C_15
REMARK                            x       y       z     vdW  Elec       q    Type
REMARK                         _______ _______ _______ _____ _____    ______ ____
ROOT
ATOM      1  N   UNL     1     -29.592 -14.363  17.884  0.00  0.00    -0.216 N 
ATOM      2  H   UNL     1     -29.656 -15.335  18.261  0.00  0.00    +0.174 HD
ENDROOT
BRANCH   1   6
ATOM      3  C   UNL     1     -29.215 -14.785  12.930  0.00  0.00    +0.044 C 
ATOM      4  C   UNL     1     -29.960 -14.256  14.130  0.00  0.00    -0.035 A 
ATOM      5  C   UNL     1     -29.431 -14.507  15.408  0.00  0.00    +0.028 A 
ATOM      6  C   UNL     1     -30.104 -14.088  16.567  0.00  0.00    +0.048 A 
ATOM      7  C   UNL     1     -31.304 -13.384  16.436  0.00  0.00    +0.025 A 
ATOM      8  C   UNL     1     -31.833 -13.108  15.176  0.00  0.00    +0.017 A 
ATOM      9  C   UNL     1     -31.171 -13.525  14.006  0.00  0.00    +0.062 A 
BRANCH   9  10
ATOM     10  C   UNL     1     -31.773 -13.174  12.692  0.00  0.00    +0.337 C 
ATOM     11  O   UNL     1     -31.641 -12.008  12.231  0.00  0.00    -0.245 OA
BRANCH  10  12
ATOM     12  O   UNL     1     -32.454 -14.124  11.938  0.00  0.00    -0.477 OA
ATOM     13  H   UNL     1     -33.383 -14.432  12.203  0.00  0.00    +0.295 HD
ENDBRANCH  10  12
ENDBRANCH   9  10
ENDBRANCH   1   6
BRANCH   1  14
ATOM     14  S   UNL     1     -28.703 -13.212  18.833  0.00  0.00    +0.072 S 
ATOM     15  O   UNL     1     -27.979 -13.937  19.933  0.00  0.00    -0.150 OA
ATOM     16  O   UNL     1     -27.697 -12.518  17.960  0.00  0.00    -0.150 OA
BRANCH  14  17
ATOM     17  C   UNL     1     -29.805 -12.008  19.495  0.00  0.00    +0.112 A 
ATOM     18  C   UNL     1     -30.965 -12.422  20.166  0.00  0.00    +0.032 A 
ATOM     19  C   UNL     1     -31.837 -11.476  20.717  0.00  0.00    +0.051 A 
ATOM     20  C   UNL     1     -31.553 -10.114  20.594  0.00  0.00    +0.162 A 
ATOM     21  O   UNL     1     -32.424  -9.151  21.113  0.00  0.00    -0.485 OA
ATOM     22  C   UNL     1     -32.291  -7.771  20.763  0.00  0.00    +0.270 C 
ATOM     23  C   UNL     1     -30.809  -7.384  20.678  0.00  0.00    +0.270 C 
ATOM     24  O   UNL     1     -30.095  -8.330  19.876  0.00  0.00    -0.485 OA
ATOM     25  C   UNL     1     -30.383  -9.697  19.946  0.00  0.00    +0.164 A 
ATOM     26  C   UNL     1     -29.518 -10.639  19.381  0.00  0.00    +0.078 A 
ENDBRANCH  14  17
ENDBRANCH   1  14
TORSDOF 5
ENDMDL
MODEL 4
REMARK VINA RESULT:    -4.814      2.187      3.025
REMARK INTER + INTRA:          -6.815
REMARK INTER:                  -6.810
REMARK INTRA:                  -0.005
REMARK UNBOUND:                -0.735
REMARK  Name = 
REMARK  6 active torsions:
REMARK  status: ('A' for Active; 'I' for Inactive)
REMARK    1  A    between atoms: C_1  and  C_2
REMARK    2  A    between atoms: C_4  and  N_11
REMARK    3  A    between atoms: C_7  and  C_8
REMARK    4  A    between atoms: C_8  and  O_10
REMARK    5  A    between atoms: N_11  and  S_12
REMARK    6  A    between atoms: S_12  and  C_15
REMARK                            x       y       z     vdW  Elec       q    Type
REMARK                         _______ _______ _______ _____ _____    ______ ____
ROOT
ATOM      1  N   UNL     1     -30.145 -11.329  16.634  0.00  0.00    -0.216 N 
ATOM      2  H   UNL     1     -29.160 -11.420  16.298  0.00  0.00    +0.174 HD
ENDROOT
BRANCH   1   6
ATOM      3  C   UNL     1     -34.333  -9.505  14.635  0.00  0.00    +0.044 C 
ATOM      4  C   UNL     1     -33.285 -10.589  14.675  0.00  0.00    -0.035 A 
ATOM      5  C   UNL     1     -32.257 -10.487  15.629  0.00  0.00    +0.028 A 
ATOM      6  C   UNL     1     -31.221 -11.434  15.684  0.00  0.00    +0.048 A 
ATOM      7  C   UNL     1     -31.238 -12.508  14.789  0.00  0.00    +0.025 A 
ATOM      8  C   UNL     1     -32.261 -12.636  13.851  0.00  0.00    +0.017 A 
ATOM      9  C   UNL     1     -33.302 -11.693  13.782  0.00  0.00    +0.062 A 
BRANCH   9  10
ATOM     10  C   UNL     1     -34.378 -11.903  12.777  0.00  0.00    +0.337 C 
ATOM     11  O   UNL     1     -34.659 -10.987  11.957  0.00  0.00    -0.245 OA
BRANCH  10  12
ATOM     12  O   UNL     1     -35.062 -13.112  12.699  0.00  0.00    -0.477 OA
ATOM     13  H   UNL     1     -34.698 -13.946  13.144  0.00  0.00    +0.295 HD
ENDBRANCH  10  12
ENDBRANCH   9  10
ENDBRANCH   1   6
BRANCH   1  14
ATOM     14  S   UNL     1     -30.366 -10.879  18.296  0.00  0.00    +0.072 S 
ATOM     15  O   UNL     1     -29.948  -9.446  18.477  0.00  0.00    -0.150 OA
ATOM     16  O   UNL     1     -31.818 -11.013  18.660  0.00  0.00    -0.150 OA
BRANCH  14  17
ATOM     17  C   UNL     1     -29.422 -11.944  19.333  0.00  0.00    +0.112 A 
ATOM     18  C   UNL     1     -30.064 -12.690  20.332  0.00  0.00    +0.032 A 
ATOM     19  C   UNL     1     -29.329 -13.557  21.148  0.00  0.00    +0.051 A 
ATOM     20  C   UNL     1     -27.949 -13.676  20.969  0.00  0.00    +0.162 A 
ATOM     21  O   UNL     1     -27.189 -14.517  21.790  0.00  0.00    -0.485 OA
ATOM     22  C   UNL     1     -25.761 -14.445  21.801  0.00  0.00    +0.270 C 
ATOM     23  C   UNL     1     -25.231 -14.207  20.381  0.00  0.00    +0.270 C 
ATOM     24  O   UNL     1     -25.931 -13.122  19.765  0.00  0.00    -0.485 OA
ATOM     25  C   UNL     1     -27.307 -12.951  19.956  0.00  0.00    +0.164 A 
ATOM     26  C   UNL     1     -28.036 -12.073  19.150  0.00  0.00    +0.078 A 
ENDBRANCH  14  17
ENDBRANCH   1  14
TORSDOF 5
ENDMDL
MODEL 5
REMARK VINA RESULT:    -4.599      2.923      7.396
REMARK INTER + INTRA:          -6.544
REMARK INTER:                  -6.071
REMARK INTRA:                  -0.473
REMARK UNBOUND:                -0.735
REMARK  Name = 
REMARK  6 active torsions:
REMARK  status: ('A' for Active; 'I' for Inactive)
REMARK    1  A    between atoms: C_1  and  C_2
REMARK    2  A    between atoms: C_4  and  N_11
REMARK    3  A    between atoms: C_7  and  C_8
REMARK    4  A    between atoms: C_8  and  O_10
REMARK    5  A    between atoms: N_11  and  S_12
REMARK    6  A    between atoms: S_12  and  C_15
REMARK                            x       y       z     vdW  Elec       q    Type
REMARK                         _______ _______ _______ _____ _____    ______ ____
ROOT
ATOM      1  N   UNL     1     -32.039  -8.542  17.941  0.00  0.00    -0.216 N 
ATOM      2  H   UNL     1     -31.841  -7.532  17.759  0.00  0.00    +0.174 HD
ENDROOT
BRANCH   1   6
ATOM      3  C   UNL     1     -29.340 -11.286  21.110  0.00  0.00    +0.044 C 
ATOM      4  C   UNL     1     -29.575 -10.790  19.706  0.00  0.00    -0.035 A 
ATOM      5  C   UNL     1     -30.635  -9.893  19.484  0.00  0.00    +0.028 A 
ATOM      6  C   UNL     1     -30.940  -9.436  18.191  0.00  0.00    +0.048 A 
ATOM      7  C   UNL     1     -30.151  -9.863  17.118  0.00  0.00    +0.025 A 
ATOM      8  C   UNL     1     -29.083 -10.735  17.323  0.00  0.00    +0.017 A 
ATOM      9  C   UNL     1     -28.769 -11.204  18.612  0.00  0.00    +0.062 A 
BRANCH   9  10
ATOM     10  C   UNL     1     -27.599 -12.110  18.767  0.00  0.00    +0.337 C 
ATOM     11  O   UNL     1     -26.456 -11.628  18.992  0.00  0.00    -0.245 OA
BRANCH  10  12
ATOM     12  O   UNL     1     -27.749 -13.492  18.704  0.00  0.00    -0.477 OA
ATOM     13  H   UNL     1     -27.109 -14.061  18.162  0.00  0.00    +0.295 HD
ENDBRANCH  10  12
ENDBRANCH   9  10
ENDBRANCH   1   6
BRANCH   1  14
ATOM     14  S   UNL     1     -33.683  -9.064  17.742  0.00  0.00    +0.072 S 
ATOM     15  O   UNL     1     -34.014 -10.064  18.815  0.00  0.00    -0.150 OA
ATOM     16  O   UNL     1     -34.601  -7.883  17.876  0.00  0.00    -0.150 OA
BRANCH  14  17
ATOM     17  C   UNL     1     -33.895  -9.768  16.142  0.00  0.00    +0.112 A 
ATOM     18  C   UNL     1     -34.683  -9.105  15.190  0.00  0.00    +0.032 A 
ATOM     19  C   UNL     1     -34.841  -9.642  13.907  0.00  0.00    +0.051 A 
ATOM     20  C   UNL     1     -34.215 -10.845  13.576  0.00  0.00    +0.162 A 
ATOM     21  O   UNL     1     -34.381 -11.414  12.308  0.00  0.00    -0.485 OA
ATOM     22  C   UNL     1     -33.978 -12.760  12.045  0.00  0.00    +0.270 C 
ATOM     23  C   UNL     1     -32.665 -13.074  12.774  0.00  0.00    +0.270 C 
ATOM     24  O   UNL     1     -32.752 -12.678  14.146  0.00  0.00    -0.485 OA
ATOM     25  C   UNL     1     -33.407 -11.499  14.516  0.00  0.00    +0.164 A 
ATOM     26  C   UNL     1     -33.260 -10.973  15.802  0.00  0.00    +0.078 A 
ENDBRANCH  14  17
ENDBRANCH   1  14
TORSDOF 5
ENDMDL
MODEL 6
REMARK VINA RESULT:    -4.576      2.517      3.599
REMARK INTER + INTRA:          -6.515
REMARK INTER:                  -6.212
REMARK INTRA:                  -0.303
REMARK UNBOUND:                -0.735
REMARK  Name = 
REMARK  6 active torsions:
REMARK  status: ('A' for Active; 'I' for Inactive)
REMARK    1  A    between atoms: C_1  and  C_2
REMARK    2  A    between atoms: C_4  and  N_11
REMARK    3  A    between atoms: C_7  and  C_8
REMARK    4  A    between atoms: C_8  and  O_10
REMARK    5  A    between atoms: N_11  and  S_12
REMARK    6  A    between atoms: S_12  and  C_15
REMARK                            x       y       z     vdW  Elec       q    Type
REMARK                         _______ _______ _______ _____ _____    ______ ____
ROOT
ATOM      1  N   UNL     1     -31.336  -9.173  16.973  0.00  0.00    -0.216 N 
ATOM      2  H   UNL     1     -30.632  -8.464  16.667  0.00  0.00    +0.174 HD
ENDROOT
BRANCH   1   6
ATOM      3  C   UNL     1     -31.668 -12.930  13.712  0.00  0.00    +0.044 C 
ATOM      4  C   UNL     1     -32.290 -11.714  14.351  0.00  0.00    -0.035 A 
ATOM      5  C   UNL     1     -31.539 -11.003  15.303  0.00  0.00    +0.028 A 
ATOM      6  C   UNL     1     -32.080  -9.894  15.974  0.00  0.00    +0.048 A 
ATOM      7  C   UNL     1     -33.378  -9.481  15.660  0.00  0.00    +0.025 A 
ATOM      8  C   UNL     1     -34.130 -10.161  14.703  0.00  0.00    +0.017 A 
ATOM      9  C   UNL     1     -33.602 -11.275  14.027  0.00  0.00    +0.062 A 
BRANCH   9  10
ATOM     10  C   UNL     1     -34.445 -11.940  12.997  0.00  0.00    +0.337 C 
ATOM     11  O   UNL     1     -34.686 -13.174  13.083  0.00  0.00    -0.245 OA
BRANCH  10  12
ATOM     12  O   UNL     1     -35.007 -11.214  11.951  0.00  0.00    -0.477 OA
ATOM     13  H   UNL     1     -34.710 -11.365  10.994  0.00  0.00    +0.295 HD
ENDBRANCH  10  12
ENDBRANCH   9  10
ENDBRANCH   1   6
BRANCH   1  14
ATOM     14  S   UNL     1     -31.658  -9.273  18.676  0.00  0.00    +0.072 S 
ATOM     15  O   UNL     1     -31.244  -7.984  19.330  0.00  0.00    -0.150 OA
ATOM     16  O   UNL     1     -33.130  -9.481  18.893  0.00  0.00    -0.150 OA
BRANCH  14  17
ATOM     17  C   UNL     1     -30.785 -10.636  19.368  0.00  0.00    +0.112 A 
ATOM     18  C   UNL     1     -31.497 -11.677  19.983  0.00  0.00    +0.032 A 
ATOM     19  C   UNL     1     -30.817 -12.777  20.517  0.00  0.00    +0.051 A 
ATOM     20  C   UNL     1     -29.424 -12.837  20.441  0.00  0.00    +0.162 A 
ATOM     21  O   UNL     1     -28.722 -13.915  20.992  0.00  0.00    -0.485 OA
ATOM     22  C   UNL     1     -27.303 -13.861  21.164  0.00  0.00    +0.270 C 
ATOM     23  C   UNL     1     -26.650 -13.151  19.971  0.00  0.00    +0.270 C 
ATOM     24  O   UNL     1     -27.320 -11.916  19.701  0.00  0.00    -0.485 OA
ATOM     25  C   UNL     1     -28.711 -11.812  19.806  0.00  0.00    +0.164 A 
ATOM     26  C   UNL     1     -29.386 -10.704  19.286  0.00  0.00    +0.078 A 
ENDBRANCH  14  17
ENDBRANCH   1  14
TORSDOF 5
ENDMDL
MODEL 7
REMARK VINA RESULT:    -4.156      3.201      4.753
REMARK INTER + INTRA:          -5.984
REMARK INTER:                  -5.484
REMARK INTRA:                  -0.501
REMARK UNBOUND:                -0.735
REMARK  Name = 
REMARK  6 active torsions:
REMARK  status: ('A' for Active; 'I' for Inactive)
REMARK    1  A    between atoms: C_1  and  C_2
REMARK    2  A    between atoms: C_4  and  N_11
REMARK    3  A    between atoms: C_7  and  C_8
REMARK    4  A    between atoms: C_8  and  O_10
REMARK    5  A    between atoms: N_11  and  S_12
REMARK    6  A    between atoms: S_12  and  C_15
REMARK                            x       y       z     vdW  Elec       q    Type
REMARK                         _______ _______ _______ _____ _____    ______ ____
ROOT
ATOM      1  N   UNL     1     -29.788 -12.306  16.443  0.00  0.00    -0.216 N 
ATOM      2  H   UNL     1     -28.880 -11.861  16.181  0.00  0.00    +0.174 HD
ENDROOT
BRANCH   1   6
ATOM      3  C   UNL     1     -33.906  -9.966  14.888  0.00  0.00    +0.044 C 
ATOM      4  C   UNL     1     -32.935 -11.109  14.739  0.00  0.00    -0.035 A 
ATOM      5  C   UNL     1     -31.870 -11.203  15.652  0.00  0.00    +0.028 A 
ATOM      6  C   UNL     1     -30.900 -12.213  15.535  0.00  0.00    +0.048 A 
ATOM      7  C   UNL     1     -31.022 -13.153  14.508  0.00  0.00    +0.025 A 
ATOM      8  C   UNL     1     -32.084 -13.088  13.606  0.00  0.00    +0.017 A 
ATOM      9  C   UNL     1     -33.060 -12.080  13.709  0.00  0.00    +0.062 A 
BRANCH   9  10
ATOM     10  C   UNL     1     -34.182 -12.082  12.733  0.00  0.00    +0.337 C 
ATOM     11  O   UNL     1     -34.326 -11.114  11.938  0.00  0.00    -0.245 OA
BRANCH  10  12
ATOM     12  O   UNL     1     -35.062 -13.157  12.654  0.00  0.00    -0.477 OA
ATOM     13  H   UNL     1     -35.841 -13.145  12.005  0.00  0.00    +0.295 HD
ENDBRANCH  10  12
ENDBRANCH   9  10
ENDBRANCH   1   6
BRANCH   1  14
ATOM     14  S   UNL     1     -29.902 -12.965  18.045  0.00  0.00    +0.072 S 
ATOM     15  O   UNL     1     -30.763 -14.196  18.010  0.00  0.00    -0.150 OA
ATOM     16  O   UNL     1     -28.530 -13.341  18.529  0.00  0.00    -0.150 OA
BRANCH  14  17
ATOM     17  C   UNL     1     -30.577 -11.760  19.138  0.00  0.00    +0.112 A 
ATOM     18  C   UNL     1     -31.522 -12.146  20.100  0.00  0.00    +0.032 A 
ATOM     19  C   UNL     1     -32.049 -11.203  20.989  0.00  0.00    +0.051 A 
ATOM     20  C   UNL     1     -31.636  -9.871  20.915  0.00  0.00    +0.162 A 
ATOM     21  O   UNL     1     -32.169  -8.906  21.776  0.00  0.00    -0.485 OA
ATOM     22  C   UNL     1     -31.965  -7.511  21.538  0.00  0.00    +0.270 C 
ATOM     23  C   UNL     1     -30.542  -7.262  21.023  0.00  0.00    +0.270 C 
ATOM     24  O   UNL     1     -30.241  -8.155  19.947  0.00  0.00    -0.485 OA
ATOM     25  C   UNL     1     -30.674  -9.485  19.972  0.00  0.00    +0.164 A 
ATOM     26  C   UNL     1     -30.158 -10.422  19.072  0.00  0.00    +0.078 A 
ENDBRANCH  14  17
ENDBRANCH   1  14
TORSDOF 5
ENDMDL
MODEL 8
REMARK VINA RESULT:    -3.872      2.862      4.609
REMARK INTER + INTRA:          -5.626
REMARK INTER:                  -5.183
REMARK INTRA:                  -0.443
REMARK UNBOUND:                -0.735
REMARK  Name = 
REMARK  6 active torsions:
REMARK  status: ('A' for Active; 'I' for Inactive)
REMARK    1  A    between atoms: C_1  and  C_2
REMARK    2  A    between atoms: C_4  and  N_11
REMARK    3  A    between atoms: C_7  and  C_8
REMARK    4  A    between atoms: C_8  and  O_10
REMARK    5  A    between atoms: N_11  and  S_12
REMARK    6  A    between atoms: S_12  and  C_15
REMARK                            x       y       z     vdW  Elec       q    Type
REMARK                         _______ _______ _______ _____ _____    ______ ____
ROOT
ATOM      1  N   UNL     1     -31.469 -13.698  18.216  0.00  0.00    -0.216 N 
ATOM      2  H   UNL     1     -32.289 -14.230  18.585  0.00  0.00    +0.174 HD
ENDROOT
BRANCH   1   6
ATOM      3  C   UNL     1     -32.028 -12.421  13.429  0.00  0.00    +0.044 C 
ATOM      4  C   UNL     1     -31.344 -13.273  14.468  0.00  0.00    -0.035 A 
ATOM      5  C   UNL     1     -31.736 -13.130  15.811  0.00  0.00    +0.028 A 
ATOM      6  C   UNL     1     -31.100 -13.854  16.834  0.00  0.00    +0.048 A 
ATOM      7  C   UNL     1     -30.082 -14.750  16.496  0.00  0.00    +0.025 A 
ATOM      8  C   UNL     1     -29.695 -14.920  15.168  0.00  0.00    +0.017 A 
ATOM      9  C   UNL     1     -30.319 -14.199  14.134  0.00  0.00    +0.062 A 
BRANCH   9  10
ATOM     10  C   UNL     1     -29.879 -14.446  12.735  0.00  0.00    +0.337 C 
ATOM     11  O   UNL     1     -30.636 -15.062  11.937  0.00  0.00    -0.245 OA
BRANCH  10  12
ATOM     12  O   UNL     1     -28.653 -13.975  12.275  0.00  0.00    -0.477 OA
ATOM     13  H   UNL     1     -27.978 -13.569  12.913  0.00  0.00    +0.295 HD
ENDBRANCH  10  12
ENDBRANCH   9  10
ENDBRANCH   1   6
BRANCH   1  14
ATOM     14  S   UNL     1     -30.525 -12.813  19.373  0.00  0.00    +0.072 S 
ATOM     15  O   UNL     1     -30.490 -13.578  20.667  0.00  0.00    -0.150 OA
ATOM     16  O   UNL     1     -29.122 -12.659  18.858  0.00  0.00    -0.150 OA
BRANCH  14  17
ATOM     17  C   UNL     1     -31.220 -11.212  19.610  0.00  0.00    +0.112 A 
ATOM     18  C   UNL     1     -32.614 -11.055  19.619  0.00  0.00    +0.032 A 
ATOM     19  C   UNL     1     -33.179  -9.792  19.828  0.00  0.00    +0.051 A 
ATOM     20  C   UNL     1     -32.352  -8.684  20.025  0.00  0.00    +0.162 A 
ATOM     21  O   UNL     1     -32.895  -7.408  20.211  0.00  0.00    -0.485 OA
ATOM     22  C   UNL     1     -32.074  -6.239  20.141  0.00  0.00    +0.270 C 
ATOM     23  C   UNL     1     -30.711  -6.508  20.792  0.00  0.00    +0.270 C 
ATOM     24  O   UNL     1     -30.153  -7.725  20.289  0.00  0.00    -0.485 OA
ATOM     25  C   UNL     1     -30.960  -8.841  20.042  0.00  0.00    +0.164 A 
ATOM     26  C   UNL     1     -30.392 -10.098  19.817  0.00  0.00    +0.078 A 
ENDBRANCH  14  17
ENDBRANCH   1  14
TORSDOF 5
ENDMDL
