MODEL 1
REMARK VINA RESULT:    -4.725      0.000      0.000
REMARK INTER + INTRA:          -7.750
REMARK INTER:                  -6.520
REMARK INTRA:                  -1.230
REMARK UNBOUND:                -1.230
REMARK  Name = 
REMARK  9 active torsions:
REMARK  status: ('A' for Active; 'I' for Inactive)
REMARK    1  A    between atoms: C_1  and  C_2
REMARK    2  A    between atoms: C_2  and  C_3
REMARK    3  A    between atoms: C_5  and  C_6
REMARK    4  A    between atoms: C_7  and  C_9
REMARK    5  A    between atoms: N_11  and  C_12
REMARK    6  A    between atoms: C_12  and  C_13
REMARK    7  A    between atoms: C_12  and  C_17
REMARK    8  A    between atoms: C_13  and  C_14
REMARK    9  A    between atoms: C_14  and  O_16
REMARK                            x       y       z     vdW  Elec       q    Type
REMARK                         _______ _______ _______ _____ _____    ______ ____
ROOT
ATOM      1  C   UNL     1     -30.538 -10.353  16.442  0.00  0.00    +0.280 C 
ATOM      2  O   UNL     1     -30.119  -9.169  16.340  0.00  0.00    -0.267 OA
ATOM      3  N   UNL     1     -30.082 -11.187  17.518  0.00  0.00    -0.301 N 
ATOM      4  H   UNL     1     -30.412 -12.178  17.553  0.00  0.00    +0.150 HD
ENDROOT
BRANCH   1   9
ATOM      5  C   UNL     1     -32.263 -12.100  13.875  0.00  0.00    +0.106 A 
ATOM      6  C   UNL     1     -33.302 -11.259  14.224  0.00  0.00    +0.048 A 
ATOM      7  C   UNL     1     -32.806 -10.471  15.243  0.00  0.00    +0.000 A 
ATOM      8  C   UNL     1     -33.559  -9.397  15.964  0.00  0.00    +0.048 C 
ATOM      9  C   UNL     1     -31.498 -10.883  15.454  0.00  0.00    +0.192 A 
ATOM     10  O   UNL     1     -31.209 -11.858  14.621  0.00  0.00    -0.455 OA
BRANCH   5  12
ATOM     11  C   UNL     1     -33.540 -12.982  11.938  0.00  0.00    +0.012 C 
ATOM     12  C   UNL     1     -32.318 -13.168  12.829  0.00  0.00    +0.071 C 
ENDBRANCH   5  12
ENDBRANCH   1   9
BRANCH   3  13
ATOM     13  C   UNL     1     -29.088 -10.730  18.494  0.00  0.00    +0.121 C 
BRANCH  13  14
ATOM     14  C   UNL     1     -29.776 -10.283  19.759  0.00  0.00    +0.011 A 
ATOM     15  C   UNL     1     -29.795 -10.957  20.976  0.00  0.00    +0.013 A 
ATOM     16  C   UNL     1     -30.507 -10.279  21.972  0.00  0.00    +0.008 A 
ATOM     17  C   UNL     1     -31.047  -9.072  21.548  0.00  0.00    +0.045 A 
ATOM     18  S   UNL     1     -30.639  -8.849  19.932  0.00  0.00    -0.100 S 
ENDBRANCH  13  14
BRANCH  13  19
ATOM     19  C   UNL     1     -28.073 -11.853  18.771  0.00  0.00    +0.148 C 
BRANCH  19  20
ATOM     20  C   UNL     1     -28.533 -13.162  18.204  0.00  0.00    +0.307 C 
ATOM     21  O   UNL     1     -28.338 -13.426  16.988  0.00  0.00    -0.251 OA
BRANCH  20  22
ATOM     22  O   UNL     1     -29.136 -14.103  19.033  0.00  0.00    -0.481 OA
ATOM     23  H   UNL     1     -28.840 -15.072  19.020  0.00  0.00    +0.295 HD
ENDBRANCH  20  22
ENDBRANCH  19  20
ENDBRANCH  13  19
ENDBRANCH   3  13
TORSDOF 7
ENDMDL
MODEL 2
REMARK VINA RESULT:    -4.607      2.579      3.797
REMARK INTER + INTRA:          -7.588
REMARK INTER:                  -6.261
REMARK INTRA:                  -1.327
REMARK UNBOUND:                -1.230
REMARK  Name = 
REMARK  9 active torsions:
REMARK  status: ('A' for Active; 'I' for Inactive)
REMARK    1  A    between atoms: C_1  and  C_2
REMARK    2  A    between atoms: C_2  and  C_3
REMARK    3  A    between atoms: C_5  and  C_6
REMARK    4  A    between atoms: C_7  and  C_9
REMARK    5  A    between atoms: N_11  and  C_12
REMARK    6  A    between atoms: C_12  and  C_13
REMARK    7  A    between atoms: C_12  and  C_17
REMARK    8  A    between atoms: C_13  and  C_14
REMARK    9  A    between atoms: C_14  and  O_16
REMARK                            x       y       z     vdW  Elec       q    Type
REMARK                         _______ _______ _______ _____ _____    ______ ____
ROOT
ATOM      1  C   UNL     1     -31.409 -13.489  16.681  0.00  0.00    +0.280 C 
ATOM      2  O   UNL     1     -32.049 -14.388  17.291  0.00  0.00    -0.267 OA
ATOM      3  N   UNL     1     -30.817 -12.406  17.413  0.00  0.00    -0.301 N 
ATOM      4  H   UNL     1     -30.330 -11.651  16.878  0.00  0.00    +0.150 HD
ENDROOT
BRANCH   1   9
ATOM      5  C   UNL     1     -31.756 -13.269  13.153  0.00  0.00    +0.106 A 
ATOM      6  C   UNL     1     -30.537 -13.919  13.155  0.00  0.00    +0.048 A 
ATOM      7  C   UNL     1     -30.224 -14.103  14.487  0.00  0.00    +0.000 A 
ATOM      8  C   UNL     1     -28.989 -14.765  15.012  0.00  0.00    +0.048 C 
ATOM      9  C   UNL     1     -31.270 -13.550  15.213  0.00  0.00    +0.192 A 
ATOM     10  O   UNL     1     -32.165 -13.060  14.384  0.00  0.00    -0.455 OA
BRANCH   5  12
ATOM     11  C   UNL     1     -33.959 -12.525  12.284  0.00  0.00    +0.012 C 
ATOM     12  C   UNL     1     -32.505 -12.821  11.938  0.00  0.00    +0.071 C 
ENDBRANCH   5  12
ENDBRANCH   1   9
BRANCH   3  13
ATOM     13  C   UNL     1     -30.971 -12.266  18.865  0.00  0.00    +0.121 C 
BRANCH  13  14
ATOM     14  C   UNL     1     -29.713 -12.717  19.562  0.00  0.00    +0.011 A 
ATOM     15  C   UNL     1     -29.598 -13.119  20.889  0.00  0.00    +0.013 A 
ATOM     16  C   UNL     1     -28.298 -13.497  21.241  0.00  0.00    +0.008 A 
ATOM     17  C   UNL     1     -27.386 -13.398  20.199  0.00  0.00    +0.045 A 
ATOM     18  S   UNL     1     -28.199 -12.839  18.837  0.00  0.00    -0.100 S 
ENDBRANCH  13  14
BRANCH  13  19
ATOM     19  C   UNL     1     -31.319 -10.809  19.215  0.00  0.00    +0.148 C 
BRANCH  19  20
ATOM     20  C   UNL     1     -30.262  -9.860  18.737  0.00  0.00    +0.307 C 
ATOM     21  O   UNL     1     -30.010  -9.764  17.507  0.00  0.00    -0.251 OA
BRANCH  20  22
ATOM     22  O   UNL     1     -29.590  -9.054  19.651  0.00  0.00    -0.481 OA
ATOM     23  H   UNL     1     -29.962  -8.151  19.919  0.00  0.00    +0.295 HD
ENDBRANCH  20  22
ENDBRANCH  19  20
ENDBRANCH  13  19
ENDBRANCH   3  13
TORSDOF 7
ENDMDL
MODEL 3
REMARK VINA RESULT:    -4.349      2.752      6.584
REMARK INTER + INTRA:          -7.232
REMARK INTER:                  -6.297
REMARK INTRA:                  -0.935
REMARK UNBOUND:                -1.230
REMARK  Name = 
REMARK  9 active torsions:
REMARK  status: ('A' for Active; 'I' for Inactive)
REMARK    1  A    between atoms: C_1  and  C_2
REMARK    2  A    between atoms: C_2  and  C_3
REMARK    3  A    between atoms: C_5  and  C_6
REMARK    4  A    between atoms: C_7  and  C_9
REMARK    5  A    between atoms: N_11  and  C_12
REMARK    6  A    between atoms: C_12  and  C_13
REMARK    7  A    between atoms: C_12  and  C_17
REMARK    8  A    between atoms: C_13  and  C_14
REMARK    9  A    between atoms: C_14  and  O_16
REMARK                            x       y       z     vdW  Elec       q    Type
REMARK                         _______ _______ _______ _____ _____    ______ ____
ROOT
ATOM      1  C   UNL     1     -28.772 -11.011  18.603  0.00  0.00    +0.280 C 
ATOM      2  O   UNL     1     -28.060 -10.423  17.745  0.00  0.00    -0.267 OA
ATOM      3  N   UNL     1     -30.135 -10.609  18.804  0.00  0.00    -0.301 N 
ATOM      4  H   UNL     1     -30.689 -11.085  19.552  0.00  0.00    +0.150 HD
ENDROOT
BRANCH   1   9
ATOM      5  C   UNL     1     -26.727 -13.411  20.240  0.00  0.00    +0.106 A 
ATOM      6  C   UNL     1     -27.934 -13.854  20.747  0.00  0.00    +0.048 A 
ATOM      7  C   UNL     1     -28.888 -13.017  20.203  0.00  0.00    +0.000 A 
ATOM      8  C   UNL     1     -30.361 -13.089  20.454  0.00  0.00    +0.048 C 
ATOM      9  C   UNL     1     -28.203 -12.114  19.402  0.00  0.00    +0.192 A 
ATOM     10  O   UNL     1     -26.916 -12.378  19.450  0.00  0.00    -0.455 OA
BRANCH   5  12
ATOM     11  C   UNL     1     -25.422 -14.728  21.889  0.00  0.00    +0.012 C 
ATOM     12  C   UNL     1     -25.383 -13.983  20.561  0.00  0.00    +0.071 C 
ENDBRANCH   5  12
ENDBRANCH   1   9
BRANCH   3  13
ATOM     13  C   UNL     1     -30.734  -9.485  18.077  0.00  0.00    +0.121 C 
BRANCH  13  14
ATOM     14  C   UNL     1     -31.655 -10.000  17.001  0.00  0.00    +0.011 A 
ATOM     15  C   UNL     1     -31.303 -10.331  15.696  0.00  0.00    +0.013 A 
ATOM     16  C   UNL     1     -32.381 -10.798  14.935  0.00  0.00    +0.008 A 
ATOM     17  C   UNL     1     -33.580 -10.839  15.632  0.00  0.00    +0.045 A 
ATOM     18  S   UNL     1     -33.301 -10.294  17.198  0.00  0.00    -0.100 S 
ENDBRANCH  13  14
BRANCH  13  19
ATOM     19  C   UNL     1     -31.476  -8.564  19.061  0.00  0.00    +0.148 C 
BRANCH  19  20
ATOM     20  C   UNL     1     -30.745  -8.447  20.364  0.00  0.00    +0.307 C 
ATOM     21  O   UNL     1     -30.890  -9.331  21.250  0.00  0.00    -0.251 OA
BRANCH  20  22
ATOM     22  O   UNL     1     -29.873  -7.385  20.577  0.00  0.00    -0.481 OA
ATOM     23  H   UNL     1     -28.908  -7.549  20.840  0.00  0.00    +0.295 HD
ENDBRANCH  20  22
ENDBRANCH  19  20
ENDBRANCH  13  19
ENDBRANCH   3  13
TORSDOF 7
ENDMDL
MODEL 4
REMARK VINA RESULT:    -4.238      2.668      3.794
REMARK INTER + INTRA:          -7.079
REMARK INTER:                  -5.767
REMARK INTRA:                  -1.312
REMARK UNBOUND:                -1.230
REMARK  Name = 
REMARK  9 active torsions:
REMARK  status: ('A' for Active; 'I' for Inactive)
REMARK    1  A    between atoms: C_1  and  C_2
REMARK    2  A    between atoms: C_2  and  C_3
REMARK    3  A    between atoms: C_5  and  C_6
REMARK    4  A    between atoms: C_7  and  C_9
REMARK    5  A    between atoms: N_11  and  C_12
REMARK    6  A    between atoms: C_12  and  C_13
REMARK    7  A    between atoms: C_12  and  C_17
REMARK    8  A    between atoms: C_13  and  C_14
REMARK    9  A    between atoms: C_14  and  O_16
REMARK                            x       y       z     vdW  Elec       q    Type
REMARK                         _______ _______ _______ _____ _____    ______ ____
ROOT
ATOM      1  C   UNL     1     -31.277 -13.590  16.650  0.00  0.00    +0.280 C 
ATOM      2  O   UNL     1     -32.022 -14.425  17.231  0.00  0.00    -0.267 OA
ATOM      3  N   UNL     1     -30.642 -12.546  17.403  0.00  0.00    -0.301 N 
ATOM      4  H   UNL     1     -30.065 -11.842  16.889  0.00  0.00    +0.150 HD
ENDROOT
BRANCH   1   9
ATOM      5  C   UNL     1     -30.187 -14.320  13.348  0.00  0.00    +0.106 A 
ATOM      6  C   UNL     1     -31.190 -13.438  12.996  0.00  0.00    +0.048 A 
ATOM      7  C   UNL     1     -31.750 -13.027  14.189  0.00  0.00    +0.000 A 
ATOM      8  C   UNL     1     -32.886 -12.064  14.337  0.00  0.00    +0.048 C 
ATOM      9  C   UNL     1     -31.057 -13.687  15.194  0.00  0.00    +0.192 A 
ATOM     10  O   UNL     1     -30.132 -14.452  14.655  0.00  0.00    -0.455 OA
BRANCH   5  12
ATOM     11  C   UNL     1     -27.940 -14.388  12.296  0.00  0.00    +0.012 C 
ATOM     12  C   UNL     1     -29.303 -15.062  12.397  0.00  0.00    +0.071 C 
ENDBRANCH   5  12
ENDBRANCH   1   9
BRANCH   3  13
ATOM     13  C   UNL     1     -30.869 -12.370  18.841  0.00  0.00    +0.121 C 
BRANCH  13  14
ATOM     14  C   UNL     1     -29.639 -12.779  19.610  0.00  0.00    +0.011 A 
ATOM     15  C   UNL     1     -29.573 -13.089  20.966  0.00  0.00    +0.013 A 
ATOM     16  C   UNL     1     -28.289 -13.450  21.387  0.00  0.00    +0.008 A 
ATOM     17  C   UNL     1     -27.342 -13.429  20.373  0.00  0.00    +0.045 A 
ATOM     18  S   UNL     1     -28.103 -12.961  18.949  0.00  0.00    -0.100 S 
ENDBRANCH  13  14
BRANCH  13  19
ATOM     19  C   UNL     1     -31.257 -10.910  19.133  0.00  0.00    +0.148 C 
BRANCH  19  20
ATOM     20  C   UNL     1     -30.179  -9.959  18.713  0.00  0.00    +0.307 C 
ATOM     21  O   UNL     1     -29.843  -9.882  17.501  0.00  0.00    -0.251 OA
BRANCH  20  22
ATOM     22  O   UNL     1     -29.580  -9.129  19.655  0.00  0.00    -0.481 OA
ATOM     23  H   UNL     1     -30.107  -8.391  20.107  0.00  0.00    +0.295 HD
ENDBRANCH  20  22
ENDBRANCH  19  20
ENDBRANCH  13  19
ENDBRANCH   3  13
TORSDOF 7
ENDMDL
MODEL 5
REMARK VINA RESULT:    -4.196      2.862      4.228
REMARK INTER + INTRA:          -7.021
REMARK INTER:                  -5.854
REMARK INTRA:                  -1.167
REMARK UNBOUND:                -1.230
REMARK  Name = 
REMARK  9 active torsions:
REMARK  status: ('A' for Active; 'I' for Inactive)
REMARK    1  A    between atoms: C_1  and  C_2
REMARK    2  A    between atoms: C_2  and  C_3
REMARK    3  A    between atoms: C_5  and  C_6
REMARK    4  A    between atoms: C_7  and  C_9
REMARK    5  A    between atoms: N_11  and  C_12
REMARK    6  A    between atoms: C_12  and  C_13
REMARK    7  A    between atoms: C_12  and  C_17
REMARK    8  A    between atoms: C_13  and  C_14
REMARK    9  A    between atoms: C_14  and  O_16
REMARK                            x       y       z     vdW  Elec       q    Type
REMARK                         _______ _______ _______ _____ _____    ______ ____
ROOT
ATOM      1  C   UNL     1     -30.900 -13.894  17.393  0.00  0.00    +0.280 C 
ATOM      2  O   UNL     1     -31.038 -15.062  17.844  0.00  0.00    -0.267 OA
ATOM      3  N   UNL     1     -30.529 -12.822  18.273  0.00  0.00    -0.301 N 
ATOM      4  H   UNL     1     -30.465 -11.855  17.880  0.00  0.00    +0.150 HD
ENDROOT
BRANCH   1   9
ATOM      5  C   UNL     1     -32.058 -12.876  14.192  0.00  0.00    +0.106 A 
ATOM      6  C   UNL     1     -30.930 -13.542  13.752  0.00  0.00    +0.048 A 
ATOM      7  C   UNL     1     -30.325 -14.029  14.893  0.00  0.00    +0.000 A 
ATOM      8  C   UNL     1     -29.058 -14.825  14.940  0.00  0.00    +0.048 C 
ATOM      9  C   UNL     1     -31.119 -13.627  15.958  0.00  0.00    +0.192 A 
ATOM     10  O   UNL     1     -32.143 -12.939  15.502  0.00  0.00    -0.455 OA
BRANCH   5  12
ATOM     11  C   UNL     1     -33.095 -12.776  11.940  0.00  0.00    +0.012 C 
ATOM     12  C   UNL     1     -33.035 -12.147  13.326  0.00  0.00    +0.071 C 
ENDBRANCH   5  12
ENDBRANCH   1   9
BRANCH   3  13
ATOM     13  C   UNL     1     -30.353 -13.020  19.715  0.00  0.00    +0.121 C 
BRANCH  13  14
ATOM     14  C   UNL     1     -28.894 -13.229  20.032  0.00  0.00    +0.011 A 
ATOM     15  C   UNL     1     -27.810 -12.817  19.262  0.00  0.00    +0.013 A 
ATOM     16  C   UNL     1     -26.574 -13.144  19.829  0.00  0.00    +0.008 A 
ATOM     17  C   UNL     1     -26.675 -13.809  21.043  0.00  0.00    +0.045 A 
ATOM     18  S   UNL     1     -28.305 -13.990  21.412  0.00  0.00    -0.100 S 
ENDBRANCH  13  14
BRANCH  13  19
ATOM     19  C   UNL     1     -30.930 -11.817  20.482  0.00  0.00    +0.148 C 
BRANCH  19  20
ATOM     20  C   UNL     1     -32.417 -11.722  20.318  0.00  0.00    +0.307 C 
ATOM     21  O   UNL     1     -33.023 -10.672  20.660  0.00  0.00    -0.251 OA
BRANCH  20  22
ATOM     22  O   UNL     1     -33.120 -12.778  19.747  0.00  0.00    -0.481 OA
ATOM     23  H   UNL     1     -33.106 -12.930  18.745  0.00  0.00    +0.295 HD
ENDBRANCH  20  22
ENDBRANCH  19  20
ENDBRANCH  13  19
ENDBRANCH   3  13
TORSDOF 7
ENDMDL
MODEL 6
REMARK VINA RESULT:    -4.170      2.797      6.536
REMARK INTER + INTRA:          -6.985
REMARK INTER:                  -5.852
REMARK INTRA:                  -1.134
REMARK UNBOUND:                -1.230
REMARK  Name = 
REMARK  9 active torsions:
REMARK  status: ('A' for Active; 'I' for Inactive)
REMARK    1  A    between atoms: C_1  and  C_2
REMARK    2  A    between atoms: C_2  and  C_3
REMARK    3  A    between atoms: C_5  and  C_6
REMARK    4  A    between atoms: C_7  and  C_9
REMARK    5  A    between atoms: N_11  and  C_12
REMARK    6  A    between atoms: C_12  and  C_13
REMARK    7  A    between atoms: C_12  and  C_17
REMARK    8  A    between atoms: C_13  and  C_14
REMARK    9  A    between atoms: C_14  and  O_16
REMARK                            x       y       z     vdW  Elec       q    Type
REMARK                         _______ _______ _______ _____ _____    ______ ____
ROOT
ATOM      1  C   UNL     1     -30.474 -13.275  19.434  0.00  0.00    +0.280 C 
ATOM      2  O   UNL     1     -31.671 -13.168  19.814  0.00  0.00    -0.267 OA
ATOM      3  N   UNL     1     -30.177 -13.508  18.049  0.00  0.00    -0.301 N 
ATOM      4  H   UNL     1     -29.178 -13.636  17.769  0.00  0.00    +0.150 HD
ENDROOT
BRANCH   1   9
ATOM      5  C   UNL     1     -27.571 -13.642  21.449  0.00  0.00    +0.106 A 
ATOM      6  C   UNL     1     -28.041 -12.491  22.051  0.00  0.00    +0.048 A 
ATOM      7  C   UNL     1     -29.209 -12.181  21.384  0.00  0.00    +0.000 A 
ATOM      8  C   UNL     1     -30.095 -11.008  21.668  0.00  0.00    +0.048 C 
ATOM      9  C   UNL     1     -29.376 -13.159  20.414  0.00  0.00    +0.192 A 
ATOM     10  O   UNL     1     -28.379 -14.013  20.481  0.00  0.00    -0.455 OA
BRANCH   5  12
ATOM     11  C   UNL     1     -25.324 -14.316  20.640  0.00  0.00    +0.012 C 
ATOM     12  C   UNL     1     -26.307 -14.359  21.803  0.00  0.00    +0.071 C 
ENDBRANCH   5  12
ENDBRANCH   1   9
BRANCH   3  13
ATOM     13  C   UNL     1     -31.229 -13.685  17.043  0.00  0.00    +0.121 C 
BRANCH  13  14
ATOM     14  C   UNL     1     -31.554 -12.361  16.399  0.00  0.00    +0.011 A 
ATOM     15  C   UNL     1     -30.816 -11.186  16.501  0.00  0.00    +0.013 A 
ATOM     16  C   UNL     1     -31.367 -10.124  15.774  0.00  0.00    +0.008 A 
ATOM     17  C   UNL     1     -32.533 -10.456  15.099  0.00  0.00    +0.045 A 
ATOM     18  S   UNL     1     -32.880 -12.072  15.405  0.00  0.00    -0.100 S 
ENDBRANCH  13  14
BRANCH  13  19
ATOM     19  C   UNL     1     -30.784 -14.725  16.000  0.00  0.00    +0.148 C 
BRANCH  19  20
ATOM     20  C   UNL     1     -29.413 -14.425  15.474  0.00  0.00    +0.307 C 
ATOM     21  O   UNL     1     -29.257 -14.107  14.265  0.00  0.00    -0.251 OA
BRANCH  20  22
ATOM     22  O   UNL     1     -28.319 -14.455  16.332  0.00  0.00    -0.481 OA
ATOM     23  H   UNL     1     -27.437 -14.857  16.036  0.00  0.00    +0.295 HD
ENDBRANCH  20  22
ENDBRANCH  19  20
ENDBRANCH  13  19
ENDBRANCH   3  13
TORSDOF 7
ENDMDL
MODEL 7
REMARK VINA RESULT:    -4.170      3.245      6.992
REMARK INTER + INTRA:          -6.985
REMARK INTER:                  -5.622
REMARK INTRA:                  -1.363
REMARK UNBOUND:                -1.230
REMARK  Name = 
REMARK  9 active torsions:
REMARK  status: ('A' for Active; 'I' for Inactive)
REMARK    1  A    between atoms: C_1  and  C_2
REMARK    2  A    between atoms: C_2  and  C_3
REMARK    3  A    between atoms: C_5  and  C_6
REMARK    4  A    between atoms: C_7  and  C_9
REMARK    5  A    between atoms: N_11  and  C_12
REMARK    6  A    between atoms: C_12  and  C_13
REMARK    7  A    between atoms: C_12  and  C_17
REMARK    8  A    between atoms: C_13  and  C_14
REMARK    9  A    between atoms: C_14  and  O_16
REMARK                            x       y       z     vdW  Elec       q    Type
REMARK                         _______ _______ _______ _____ _____    ______ ____
ROOT
ATOM      1  C   UNL     1     -29.110 -12.144  18.161  0.00  0.00    +0.280 C 
ATOM      2  O   UNL     1     -28.711 -11.020  17.756  0.00  0.00    -0.267 OA
ATOM      3  N   UNL     1     -30.024 -12.913  17.365  0.00  0.00    -0.301 N 
ATOM      4  H   UNL     1     -30.373 -13.822  17.746  0.00  0.00    +0.150 HD
ENDROOT
BRANCH   1   9
ATOM      5  C   UNL     1     -27.365 -13.653  20.863  0.00  0.00    +0.106 A 
ATOM      6  C   UNL     1     -28.451 -13.216  21.596  0.00  0.00    +0.048 A 
ATOM      7  C   UNL     1     -29.275 -12.584  20.686  0.00  0.00    +0.000 A 
ATOM      8  C   UNL     1     -30.588 -11.936  20.998  0.00  0.00    +0.048 C 
ATOM      9  C   UNL     1     -28.638 -12.671  19.456  0.00  0.00    +0.192 A 
ATOM     10  O   UNL     1     -27.500 -13.313  19.600  0.00  0.00    -0.455 OA
BRANCH   5  12
ATOM     11  C   UNL     1     -24.938 -14.081  20.570  0.00  0.00    +0.012 C 
ATOM     12  C   UNL     1     -26.174 -14.374  21.410  0.00  0.00    +0.071 C 
ENDBRANCH   5  12
ENDBRANCH   1   9
BRANCH   3  13
ATOM     13  C   UNL     1     -30.568 -12.414  16.098  0.00  0.00    +0.121 C 
BRANCH  13  14
ATOM     14  C   UNL     1     -30.227 -13.368  14.981  0.00  0.00    +0.011 A 
ATOM     15  C   UNL     1     -29.206 -14.312  14.978  0.00  0.00    +0.013 A 
ATOM     16  C   UNL     1     -29.150 -15.062  13.798  0.00  0.00    +0.008 A 
ATOM     17  C   UNL     1     -30.123 -14.717  12.871  0.00  0.00    +0.045 A 
ATOM     18  S   UNL     1     -31.055 -13.476  13.519  0.00  0.00    -0.100 S 
ENDBRANCH  13  14
BRANCH  13  19
ATOM     19  C   UNL     1     -32.088 -12.214  16.225  0.00  0.00    +0.148 C 
BRANCH  19  20
ATOM     20  C   UNL     1     -32.604 -12.732  17.533  0.00  0.00    +0.307 C 
ATOM     21  O   UNL     1     -33.080 -11.934  18.383  0.00  0.00    -0.251 OA
BRANCH  20  22
ATOM     22  O   UNL     1     -32.598 -14.099  17.788  0.00  0.00    -0.481 OA
ATOM     23  H   UNL     1     -33.252 -14.718  17.323  0.00  0.00    +0.295 HD
ENDBRANCH  20  22
ENDBRANCH  19  20
ENDBRANCH  13  19
ENDBRANCH   3  13
TORSDOF 7
ENDMDL
MODEL 8
REMARK VINA RESULT:    -4.139      2.570      6.840
REMARK INTER + INTRA:          -6.943
REMARK INTER:                  -5.804
REMARK INTRA:                  -1.139
REMARK UNBOUND:                -1.230
REMARK  Name = 
REMARK  9 active torsions:
REMARK  status: ('A' for Active; 'I' for Inactive)
REMARK    1  A    between atoms: C_1  and  C_2
REMARK    2  A    between atoms: C_2  and  C_3
REMARK    3  A    between atoms: C_5  and  C_6
REMARK    4  A    between atoms: C_7  and  C_9
REMARK    5  A    between atoms: N_11  and  C_12
REMARK    6  A    between atoms: C_12  and  C_13
REMARK    7  A    between atoms: C_12  and  C_17
REMARK    8  A    between atoms: C_13  and  C_14
REMARK    9  A    between atoms: C_14  and  O_16
REMARK                            x       y       z     vdW  Elec       q    Type
REMARK                         _______ _______ _______ _____ _____    ______ ____
ROOT
ATOM      1  C   UNL     1     -29.005 -11.315  18.607  0.00  0.00    +0.280 C 
ATOM      2  O   UNL     1     -28.199 -10.530  18.039  0.00  0.00    -0.267 OA
ATOM      3  N   UNL     1     -30.370 -11.387  18.167  0.00  0.00    -0.301 N 
ATOM      4  H   UNL     1     -31.027 -12.014  18.685  0.00  0.00    +0.150 HD
ENDROOT
BRANCH   1   9
ATOM      5  C   UNL     1     -27.435 -13.660  20.764  0.00  0.00    +0.106 A 
ATOM      6  C   UNL     1     -28.264 -13.096  21.715  0.00  0.00    +0.048 A 
ATOM      7  C   UNL     1     -28.985 -12.129  21.043  0.00  0.00    +0.000 A 
ATOM      8  C   UNL     1     -30.021 -11.234  21.646  0.00  0.00    +0.048 C 
ATOM      9  C   UNL     1     -28.546 -12.160  19.726  0.00  0.00    +0.192 A 
ATOM     10  O   UNL     1     -27.620 -13.084  19.598  0.00  0.00    -0.455 OA
BRANCH   5  12
ATOM     11  C   UNL     1     -25.039 -14.286  20.597  0.00  0.00    +0.012 C 
ATOM     12  C   UNL     1     -26.433 -14.742  21.011  0.00  0.00    +0.071 C 
ENDBRANCH   5  12
ENDBRANCH   1   9
BRANCH   3  13
ATOM     13  C   UNL     1     -30.893 -10.531  17.097  0.00  0.00    +0.121 C 
BRANCH  13  14
ATOM     14  C   UNL     1     -31.216 -11.364  15.883  0.00  0.00    +0.011 A 
ATOM     15  C   UNL     1     -32.016 -10.989  14.808  0.00  0.00    +0.013 A 
ATOM     16  C   UNL     1     -32.115 -11.976  13.822  0.00  0.00    +0.008 A 
ATOM     17  C   UNL     1     -31.394 -13.127  14.110  0.00  0.00    +0.045 A 
ATOM     18  S   UNL     1     -30.634 -12.917  15.595  0.00  0.00    -0.100 S 
ENDBRANCH  13  14
BRANCH  13  19
ATOM     19  C   UNL     1     -32.128  -9.763  17.599  0.00  0.00    +0.148 C 
BRANCH  19  20
ATOM     20  C   UNL     1     -31.742  -8.631  18.502  0.00  0.00    +0.307 C 
ATOM     21  O   UNL     1     -30.759  -8.751  19.280  0.00  0.00    -0.251 OA
BRANCH  20  22
ATOM     22  O   UNL     1     -32.445  -7.432  18.449  0.00  0.00    -0.481 OA
ATOM     23  H   UNL     1     -32.752  -7.049  17.562  0.00  0.00    +0.295 HD
ENDBRANCH  20  22
ENDBRANCH  19  20
ENDBRANCH  13  19
ENDBRANCH   3  13
TORSDOF 7
ENDMDL
