MODEL 1
REMARK VINA RESULT:    -4.453      0.000      0.000
REMARK INTER + INTRA:          -8.958
REMARK INTER:                  -6.925
REMARK INTRA:                  -2.033
REMARK UNBOUND:                -2.033
REMARK  Name = 
REMARK  11 active torsions:
REMARK  status: ('A' for Active; 'I' for Inactive)
REMARK    1  A    between atoms: C_1  and  C_2
REMARK    2  A    between atoms: C_2  and  O_3
REMARK    3  A    between atoms: O_3  and  C_4
REMARK    4  A    between atoms: C_7  and  O_10
REMARK    5  A    between atoms: O_10  and  C_11
REMARK    6  A    between atoms: C_11  and  C_12
REMARK    7  A    between atoms: N_14  and  C_15
REMARK    8  A    between atoms: C_15  and  C_16
REMARK    9  A    between atoms: C_15  and  C_20
REMARK   10  A    between atoms: C_16  and  C_17
REMARK   11  A    between atoms: C_17  and  O_19
REMARK                            x       y       z     vdW  Elec       q    Type
REMARK                         _______ _______ _______ _____ _____    ______ ____
ROOT
ATOM      1  C   UNL     1     -31.151  -9.698  16.738  0.00  0.00    +0.251 C 
ATOM      2  O   UNL     1     -30.323  -9.194  15.932  0.00  0.00    -0.272 OA
ATOM      3  N   UNL     1     -31.963 -10.814  16.343  0.00  0.00    -0.305 N 
ATOM      4  H   UNL     1     -32.650 -11.195  17.032  0.00  0.00    +0.149 HD
ENDROOT
BRANCH   1   5
ATOM      5  C   UNL     1     -31.248  -9.160  18.128  0.00  0.00    +0.324 C 
BRANCH   5   6
ATOM      6  O   UNL     1     -29.978  -9.277  18.762  0.00  0.00    -0.483 OA
BRANCH   6  10
ATOM      7  C   UNL     1     -28.215 -12.959  19.843  0.00  0.00    +0.121 A 
ATOM      8  C   UNL     1     -29.318 -12.449  20.537  0.00  0.00    +0.049 A 
ATOM      9  C   UNL     1     -29.890 -11.228  20.167  0.00  0.00    +0.049 A 
ATOM     10  C   UNL     1     -29.367 -10.495  19.096  0.00  0.00    +0.121 A 
ATOM     11  C   UNL     1     -28.256 -11.000  18.397  0.00  0.00    +0.049 A 
ATOM     12  C   UNL     1     -27.683 -12.221  18.768  0.00  0.00    +0.049 A 
BRANCH   7  13
ATOM     13  O   UNL     1     -27.682 -14.189  20.262  0.00  0.00    -0.492 OA
BRANCH  13  15
ATOM     14  C   UNL     1     -25.328 -14.389  20.842  0.00  0.00    +0.048 C 
ATOM     15  C   UNL     1     -26.768 -14.372  21.345  0.00  0.00    +0.225 C 
ENDBRANCH  13  15
ENDBRANCH   7  13
ENDBRANCH   6  10
ENDBRANCH   5   6
ENDBRANCH   1   5
BRANCH   3  16
ATOM     16  C   UNL     1     -31.823 -11.453  15.031  0.00  0.00    +0.120 C 
BRANCH  16  17
ATOM     17  C   UNL     1     -31.028 -12.724  15.171  0.00  0.00    +0.010 A 
ATOM     18  C   UNL     1     -30.610 -13.305  16.363  0.00  0.00    +0.013 A 
ATOM     19  C   UNL     1     -29.919 -14.508  16.177  0.00  0.00    +0.008 A 
ATOM     20  C   UNL     1     -29.796 -14.881  14.844  0.00  0.00    +0.045 A 
ATOM     21  S   UNL     1     -30.549 -13.712  13.897  0.00  0.00    -0.100 S 
ENDBRANCH  16  17
BRANCH  16  22
ATOM     22  C   UNL     1     -33.209 -11.735  14.424  0.00  0.00    +0.148 C 
BRANCH  22  23
ATOM     23  C   UNL     1     -34.312 -11.308  15.344  0.00  0.00    +0.307 C 
ATOM     24  O   UNL     1     -34.800 -12.126  16.169  0.00  0.00    -0.251 OA
BRANCH  23  25
ATOM     25  O   UNL     1     -34.769  -9.994  15.316  0.00  0.00    -0.481 OA
ATOM     26  H   UNL     1     -35.231  -9.586  16.121  0.00  0.00    +0.295 HD
ENDBRANCH  23  25
ENDBRANCH  22  23
ENDBRANCH  16  22
ENDBRANCH   3  16
TORSDOF 10
ENDMDL
MODEL 2
REMARK VINA RESULT:    -4.450      1.834      3.333
REMARK INTER + INTRA:          -8.955
REMARK INTER:                  -7.020
REMARK INTRA:                  -1.935
REMARK UNBOUND:                -2.033
REMARK  Name = 
REMARK  11 active torsions:
REMARK  status: ('A' for Active; 'I' for Inactive)
REMARK    1  A    between atoms: C_1  and  C_2
REMARK    2  A    between atoms: C_2  and  O_3
REMARK    3  A    between atoms: O_3  and  C_4
REMARK    4  A    between atoms: C_7  and  O_10
REMARK    5  A    between atoms: O_10  and  C_11
REMARK    6  A    between atoms: C_11  and  C_12
REMARK    7  A    between atoms: N_14  and  C_15
REMARK    8  A    between atoms: C_15  and  C_16
REMARK    9  A    between atoms: C_15  and  C_20
REMARK   10  A    between atoms: C_16  and  C_17
REMARK   11  A    between atoms: C_17  and  O_19
REMARK                            x       y       z     vdW  Elec       q    Type
REMARK                         _______ _______ _______ _____ _____    ______ ____
ROOT
ATOM      1  C   UNL     1     -31.240 -10.842  16.684  0.00  0.00    +0.251 C 
ATOM      2  O   UNL     1     -32.424 -10.737  17.102  0.00  0.00    -0.272 OA
ATOM      3  N   UNL     1     -30.828 -12.008  15.954  0.00  0.00    -0.305 N 
ATOM      4  H   UNL     1     -29.834 -12.067  15.637  0.00  0.00    +0.149 HD
ENDROOT
BRANCH   1   5
ATOM      5  C   UNL     1     -30.277  -9.722  16.906  0.00  0.00    +0.324 C 
BRANCH   5   6
ATOM      6  O   UNL     1     -29.859  -9.732  18.268  0.00  0.00    -0.483 OA
BRANCH   6  10
ATOM      7  C   UNL     1     -28.265 -13.118  20.224  0.00  0.00    +0.121 A 
ATOM      8  C   UNL     1     -27.571 -12.483  19.188  0.00  0.00    +0.049 A 
ATOM      9  C   UNL     1     -28.113 -11.363  18.550  0.00  0.00    +0.049 A 
ATOM     10  C   UNL     1     -29.359 -10.859  18.936  0.00  0.00    +0.121 A 
ATOM     11  C   UNL     1     -30.064 -11.496  19.975  0.00  0.00    +0.049 A 
ATOM     12  C   UNL     1     -29.522 -12.617  20.613  0.00  0.00    +0.049 A 
BRANCH   7  13
ATOM     13  O   UNL     1     -27.672 -14.240  20.826  0.00  0.00    -0.492 OA
BRANCH  13  15
ATOM     14  C   UNL     1     -25.281 -14.556  21.138  0.00  0.00    +0.048 C 
ATOM     15  C   UNL     1     -26.617 -14.206  21.787  0.00  0.00    +0.225 C 
ENDBRANCH  13  15
ENDBRANCH   7  13
ENDBRANCH   6  10
ENDBRANCH   5   6
ENDBRANCH   1   5
BRANCH   3  16
ATOM     16  C   UNL     1     -31.764 -13.081  15.607  0.00  0.00    +0.120 C 
BRANCH  16  17
ATOM     17  C   UNL     1     -32.362 -12.811  14.252  0.00  0.00    +0.010 A 
ATOM     18  C   UNL     1     -31.821 -13.184  13.026  0.00  0.00    +0.013 A 
ATOM     19  C   UNL     1     -32.626 -12.828  11.937  0.00  0.00    +0.008 A 
ATOM     20  C   UNL     1     -33.801 -12.182  12.300  0.00  0.00    +0.045 A 
ATOM     21  S   UNL     1     -33.838 -12.055  13.977  0.00  0.00    -0.100 S 
ENDBRANCH  16  17
BRANCH  16  22
ATOM     22  C   UNL     1     -31.048 -14.443  15.631  0.00  0.00    +0.148 C 
BRANCH  22  23
ATOM     23  C   UNL     1     -29.925 -14.459  16.624  0.00  0.00    +0.307 C 
ATOM     24  O   UNL     1     -28.814 -13.943  16.330  0.00  0.00    -0.251 OA
BRANCH  23  25
ATOM     25  O   UNL     1     -30.125 -15.007  17.888  0.00  0.00    -0.481 OA
ATOM     26  H   UNL     1     -30.541 -15.925  17.996  0.00  0.00    +0.295 HD
ENDBRANCH  23  25
ENDBRANCH  22  23
ENDBRANCH  16  22
ENDBRANCH   3  16
TORSDOF 10
ENDMDL
MODEL 3
REMARK VINA RESULT:    -4.206      2.609      5.785
REMARK INTER + INTRA:          -8.575
REMARK INTER:                  -6.173
REMARK INTRA:                  -2.402
REMARK UNBOUND:                -2.033
REMARK  Name = 
REMARK  11 active torsions:
REMARK  status: ('A' for Active; 'I' for Inactive)
REMARK    1  A    between atoms: C_1  and  C_2
REMARK    2  A    between atoms: C_2  and  O_3
REMARK    3  A    between atoms: O_3  and  C_4
REMARK    4  A    between atoms: C_7  and  O_10
REMARK    5  A    between atoms: O_10  and  C_11
REMARK    6  A    between atoms: C_11  and  C_12
REMARK    7  A    between atoms: N_14  and  C_15
REMARK    8  A    between atoms: C_15  and  C_16
REMARK    9  A    between atoms: C_15  and  C_20
REMARK   10  A    between atoms: C_16  and  C_17
REMARK   11  A    between atoms: C_17  and  O_19
REMARK                            x       y       z     vdW  Elec       q    Type
REMARK                         _______ _______ _______ _____ _____    ______ ____
ROOT
ATOM      1  C   UNL     1     -28.789 -11.186  18.757  0.00  0.00    +0.251 C 
ATOM      2  O   UNL     1     -28.011 -10.562  17.987  0.00  0.00    -0.272 OA
ATOM      3  N   UNL     1     -30.104 -10.679  19.028  0.00  0.00    -0.305 N 
ATOM      4  H   UNL     1     -30.716 -11.216  19.685  0.00  0.00    +0.149 HD
ENDROOT
BRANCH   1   5
ATOM      5  C   UNL     1     -28.354 -12.487  19.348  0.00  0.00    +0.324 C 
BRANCH   5   6
ATOM      6  O   UNL     1     -29.306 -13.492  19.012  0.00  0.00    -0.483 OA
BRANCH   6  10
ATOM      7  C   UNL     1     -30.907 -14.151  15.161  0.00  0.00    +0.121 A 
ATOM      8  C   UNL     1     -31.734 -14.046  16.285  0.00  0.00    +0.049 A 
ATOM      9  C   UNL     1     -31.189 -13.828  17.553  0.00  0.00    +0.049 A 
ATOM     10  C   UNL     1     -29.805 -13.713  17.721  0.00  0.00    +0.121 A 
ATOM     11  C   UNL     1     -28.966 -13.821  16.595  0.00  0.00    +0.049 A 
ATOM     12  C   UNL     1     -29.512 -14.040  15.326  0.00  0.00    +0.049 A 
BRANCH   7  13
ATOM     13  O   UNL     1     -31.512 -14.372  13.913  0.00  0.00    -0.492 OA
BRANCH  13  15
ATOM     14  C   UNL     1     -32.780 -13.197  12.203  0.00  0.00    +0.048 C 
ATOM     15  C   UNL     1     -31.402 -13.518  12.774  0.00  0.00    +0.225 C 
ENDBRANCH  13  15
ENDBRANCH   7  13
ENDBRANCH   6  10
ENDBRANCH   5   6
ENDBRANCH   1   5
BRANCH   3  16
ATOM     16  C   UNL     1     -30.621  -9.470  18.381  0.00  0.00    +0.120 C 
BRANCH  16  17
ATOM     17  C   UNL     1     -31.511  -9.854  17.229  0.00  0.00    +0.010 A 
ATOM     18  C   UNL     1     -31.102 -10.113  15.925  0.00  0.00    +0.013 A 
ATOM     19  C   UNL     1     -32.155 -10.484  15.081  0.00  0.00    +0.008 A 
ATOM     20  C   UNL     1     -33.391 -10.525  15.715  0.00  0.00    +0.045 A 
ATOM     21  S   UNL     1     -33.172 -10.099  17.327  0.00  0.00    -0.100 S 
ENDBRANCH  16  17
BRANCH  16  22
ATOM     22  C   UNL     1     -31.384  -8.605  19.401  0.00  0.00    +0.148 C 
BRANCH  22  23
ATOM     23  C   UNL     1     -30.570  -8.357  20.634  0.00  0.00    +0.307 C 
ATOM     24  O   UNL     1     -30.532  -9.222  21.549  0.00  0.00    -0.251 OA
BRANCH  23  25
ATOM     25  O   UNL     1     -29.822  -7.189  20.749  0.00  0.00    -0.481 OA
ATOM     26  H   UNL     1     -29.256  -6.857  19.976  0.00  0.00    +0.295 HD
ENDBRANCH  23  25
ENDBRANCH  22  23
ENDBRANCH  16  22
ENDBRANCH   3  16
TORSDOF 10
ENDMDL
MODEL 4
REMARK VINA RESULT:    -4.106      1.925      6.178
REMARK INTER + INTRA:          -8.420
REMARK INTER:                  -6.258
REMARK INTRA:                  -2.162
REMARK UNBOUND:                -2.033
REMARK  Name = 
REMARK  11 active torsions:
REMARK  status: ('A' for Active; 'I' for Inactive)
REMARK    1  A    between atoms: C_1  and  C_2
REMARK    2  A    between atoms: C_2  and  O_3
REMARK    3  A    between atoms: O_3  and  C_4
REMARK    4  A    between atoms: C_7  and  O_10
REMARK    5  A    between atoms: O_10  and  C_11
REMARK    6  A    between atoms: C_11  and  C_12
REMARK    7  A    between atoms: N_14  and  C_15
REMARK    8  A    between atoms: C_15  and  C_16
REMARK    9  A    between atoms: C_15  and  C_20
REMARK   10  A    between atoms: C_16  and  C_17
REMARK   11  A    between atoms: C_17  and  O_19
REMARK                            x       y       z     vdW  Elec       q    Type
REMARK                         _______ _______ _______ _____ _____    ______ ____
ROOT
ATOM      1  C   UNL     1     -30.198 -10.433  19.980  0.00  0.00    +0.251 C 
ATOM      2  O   UNL     1     -30.970 -11.066  20.749  0.00  0.00    -0.272 OA
ATOM      3  N   UNL     1     -29.105 -11.104  19.334  0.00  0.00    -0.305 N 
ATOM      4  H   UNL     1     -28.476 -10.543  18.716  0.00  0.00    +0.149 HD
ENDROOT
BRANCH   1   5
ATOM      5  C   UNL     1     -30.455  -8.988  19.702  0.00  0.00    +0.324 C 
BRANCH   5   6
ATOM      6  O   UNL     1     -31.641  -8.869  18.922  0.00  0.00    -0.483 OA
BRANCH   6  10
ATOM      7  C   UNL     1     -32.570 -11.189  15.519  0.00  0.00    +0.121 A 
ATOM      8  C   UNL     1     -33.423 -11.151  16.628  0.00  0.00    +0.049 A 
ATOM      9  C   UNL     1     -33.101 -10.378  17.747  0.00  0.00    +0.049 A 
ATOM     10  C   UNL     1     -31.918  -9.631  17.778  0.00  0.00    +0.121 A 
ATOM     11  C   UNL     1     -31.054  -9.668  16.667  0.00  0.00    +0.049 A 
ATOM     12  C   UNL     1     -31.377 -10.443  15.547  0.00  0.00    +0.049 A 
BRANCH   7  13
ATOM     13  O   UNL     1     -32.945 -11.986  14.424  0.00  0.00    -0.492 OA
BRANCH  13  15
ATOM     14  C   UNL     1     -32.860 -13.165  12.299  0.00  0.00    +0.048 C 
ATOM     15  C   UNL     1     -32.080 -12.410  13.371  0.00  0.00    +0.225 C 
ENDBRANCH  13  15
ENDBRANCH   7  13
ENDBRANCH   6  10
ENDBRANCH   5   6
ENDBRANCH   1   5
BRANCH   3  16
ATOM     16  C   UNL     1     -28.881 -12.545  19.481  0.00  0.00    +0.120 C 
BRANCH  16  17
ATOM     17  C   UNL     1     -29.578 -13.281  18.368  0.00  0.00    +0.010 A 
ATOM     18  C   UNL     1     -30.869 -13.797  18.406  0.00  0.00    +0.013 A 
ATOM     19  C   UNL     1     -31.257 -14.398  17.203  0.00  0.00    +0.008 A 
ATOM     20  C   UNL     1     -30.281 -14.353  16.216  0.00  0.00    +0.045 A 
ATOM     21  S   UNL     1     -28.934 -13.564  16.841  0.00  0.00    -0.100 S 
ENDBRANCH  16  17
BRANCH  16  22
ATOM     22  C   UNL     1     -27.372 -12.852  19.483  0.00  0.00    +0.148 C 
BRANCH  22  23
ATOM     23  C   UNL     1     -27.009 -13.830  20.558  0.00  0.00    +0.307 C 
ATOM     24  O   UNL     1     -26.144 -13.528  21.422  0.00  0.00    -0.251 OA
BRANCH  23  25
ATOM     25  O   UNL     1     -27.659 -15.059  20.625  0.00  0.00    -0.481 OA
ATOM     26  H   UNL     1     -28.268 -15.282  21.405  0.00  0.00    +0.295 HD
ENDBRANCH  23  25
ENDBRANCH  22  23
ENDBRANCH  16  22
ENDBRANCH   3  16
TORSDOF 10
ENDMDL
MODEL 5
REMARK VINA RESULT:    -3.972      2.582      4.792
REMARK INTER + INTRA:          -8.211
REMARK INTER:                  -5.629
REMARK INTRA:                  -2.581
REMARK UNBOUND:                -2.033
REMARK  Name = 
REMARK  11 active torsions:
REMARK  status: ('A' for Active; 'I' for Inactive)
REMARK    1  A    between atoms: C_1  and  C_2
REMARK    2  A    between atoms: C_2  and  O_3
REMARK    3  A    between atoms: O_3  and  C_4
REMARK    4  A    between atoms: C_7  and  O_10
REMARK    5  A    between atoms: O_10  and  C_11
REMARK    6  A    between atoms: C_11  and  C_12
REMARK    7  A    between atoms: N_14  and  C_15
REMARK    8  A    between atoms: C_15  and  C_16
REMARK    9  A    between atoms: C_15  and  C_20
REMARK   10  A    between atoms: C_16  and  C_17
REMARK   11  A    between atoms: C_17  and  O_19
REMARK                            x       y       z     vdW  Elec       q    Type
REMARK                         _______ _______ _______ _____ _____    ______ ____
ROOT
ATOM      1  C   UNL     1     -29.831 -10.296  19.092  0.00  0.00    +0.251 C 
ATOM      2  O   UNL     1     -29.047  -9.690  18.314  0.00  0.00    -0.272 OA
ATOM      3  N   UNL     1     -31.247 -10.070  19.019  0.00  0.00    -0.305 N 
ATOM      4  H   UNL     1     -31.865 -10.579  19.691  0.00  0.00    +0.149 HD
ENDROOT
BRANCH   1   5
ATOM      5  C   UNL     1     -29.284 -11.292  20.062  0.00  0.00    +0.324 C 
BRANCH   5   6
ATOM      6  O   UNL     1     -29.900 -12.555  19.827  0.00  0.00    -0.483 OA
BRANCH   6  10
ATOM      7  C   UNL     1     -30.368 -14.383  16.050  0.00  0.00    +0.121 A 
ATOM      8  C   UNL     1     -31.437 -14.282  16.947  0.00  0.00    +0.049 A 
ATOM      9  C   UNL     1     -31.266 -13.674  18.194  0.00  0.00    +0.049 A 
ATOM     10  C   UNL     1     -30.021 -13.158  18.567  0.00  0.00    +0.121 A 
ATOM     11  C   UNL     1     -28.939 -13.260  17.672  0.00  0.00    +0.049 A 
ATOM     12  C   UNL     1     -29.111 -13.869  16.424  0.00  0.00    +0.049 A 
BRANCH   7  13
ATOM     13  O   UNL     1     -30.599 -15.007  14.813  0.00  0.00    -0.492 OA
BRANCH  13  15
ATOM     14  C   UNL     1     -30.830 -14.081  12.576  0.00  0.00    +0.048 C 
ATOM     15  C   UNL     1     -29.901 -14.727  13.599  0.00  0.00    +0.225 C 
ENDBRANCH  13  15
ENDBRANCH   7  13
ENDBRANCH   6  10
ENDBRANCH   5   6
ENDBRANCH   1   5
BRANCH   3  16
ATOM     16  C   UNL     1     -31.844  -9.193  18.008  0.00  0.00    +0.120 C 
BRANCH  16  17
ATOM     17  C   UNL     1     -32.202  -9.998  16.787  0.00  0.00    +0.010 A 
ATOM     18  C   UNL     1     -31.365 -10.277  15.712  0.00  0.00    +0.013 A 
ATOM     19  C   UNL     1     -31.968 -11.083  14.739  0.00  0.00    +0.008 A 
ATOM     20  C   UNL     1     -33.274 -11.445  15.046  0.00  0.00    +0.045 A 
ATOM     21  S   UNL     1     -33.677 -10.762  16.529  0.00  0.00    -0.100 S 
ENDBRANCH  16  17
BRANCH  16  22
ATOM     22  C   UNL     1     -33.084  -8.484  18.582  0.00  0.00    +0.148 C 
BRANCH  22  23
ATOM     23  C   UNL     1     -33.456  -9.026  19.929  0.00  0.00    +0.307 C 
ATOM     24  O   UNL     1     -32.707  -8.821  20.921  0.00  0.00    -0.251 OA
BRANCH  23  25
ATOM     25  O   UNL     1     -34.651  -9.719  20.091  0.00  0.00    -0.481 OA
ATOM     26  H   UNL     1     -34.708 -10.711  19.888  0.00  0.00    +0.295 HD
ENDBRANCH  23  25
ENDBRANCH  22  23
ENDBRANCH  16  22
ENDBRANCH   3  16
TORSDOF 10
ENDMDL
MODEL 6
REMARK VINA RESULT:    -3.971      2.533      5.468
REMARK INTER + INTRA:          -8.209
REMARK INTER:                  -6.020
REMARK INTRA:                  -2.188
REMARK UNBOUND:                -2.033
REMARK  Name = 
REMARK  11 active torsions:
REMARK  status: ('A' for Active; 'I' for Inactive)
REMARK    1  A    between atoms: C_1  and  C_2
REMARK    2  A    between atoms: C_2  and  O_3
REMARK    3  A    between atoms: O_3  and  C_4
REMARK    4  A    between atoms: C_7  and  O_10
REMARK    5  A    between atoms: O_10  and  C_11
REMARK    6  A    between atoms: C_11  and  C_12
REMARK    7  A    between atoms: N_14  and  C_15
REMARK    8  A    between atoms: C_15  and  C_16
REMARK    9  A    between atoms: C_15  and  C_20
REMARK   10  A    between atoms: C_16  and  C_17
REMARK   11  A    between atoms: C_17  and  O_19
REMARK                            x       y       z     vdW  Elec       q    Type
REMARK                         _______ _______ _______ _____ _____    ______ ____
ROOT
ATOM      1  C   UNL     1     -28.978 -13.239  17.986  0.00  0.00    +0.251 C 
ATOM      2  O   UNL     1     -29.687 -13.772  18.882  0.00  0.00    -0.272 OA
ATOM      3  N   UNL     1     -29.273 -13.459  16.598  0.00  0.00    -0.305 N 
ATOM      4  H   UNL     1     -28.654 -13.014  15.884  0.00  0.00    +0.149 HD
ENDROOT
BRANCH   1   5
ATOM      5  C   UNL     1     -27.855 -12.334  18.375  0.00  0.00    +0.324 C 
BRANCH   5   6
ATOM      6  O   UNL     1     -28.133 -11.019  17.904  0.00  0.00    -0.483 OA
BRANCH   6  10
ATOM      7  C   UNL     1     -31.795  -9.016  18.541  0.00  0.00    +0.121 A 
ATOM      8  C   UNL     1     -30.992  -9.423  19.613  0.00  0.00    +0.049 A 
ATOM      9  C   UNL     1     -29.783 -10.086  19.385  0.00  0.00    +0.049 A 
ATOM     10  C   UNL     1     -29.355 -10.355  18.081  0.00  0.00    +0.121 A 
ATOM     11  C   UNL     1     -30.160  -9.952  16.998  0.00  0.00    +0.049 A 
ATOM     12  C   UNL     1     -31.371  -9.289  17.227  0.00  0.00    +0.049 A 
BRANCH   7  13
ATOM     13  O   UNL     1     -33.001  -8.357  18.832  0.00  0.00    -0.492 OA
BRANCH  13  15
ATOM     14  C   UNL     1     -32.783  -6.051  19.574  0.00  0.00    +0.048 C 
ATOM     15  C   UNL     1     -33.219  -7.469  19.929  0.00  0.00    +0.225 C 
ENDBRANCH  13  15
ENDBRANCH   7  13
ENDBRANCH   6  10
ENDBRANCH   5   6
ENDBRANCH   1   5
BRANCH   3  16
ATOM     16  C   UNL     1     -30.434 -14.242  16.164  0.00  0.00    +0.120 C 
BRANCH  16  17
ATOM     17  C   UNL     1     -31.620 -13.332  15.985  0.00  0.00    +0.010 A 
ATOM     18  C   UNL     1     -31.998 -12.696  14.807  0.00  0.00    +0.013 A 
ATOM     19  C   UNL     1     -33.169 -11.942  14.940  0.00  0.00    +0.008 A 
ATOM     20  C   UNL     1     -33.719 -11.984  16.215  0.00  0.00    +0.045 A 
ATOM     21  S   UNL     1     -32.746 -12.962  17.177  0.00  0.00    -0.100 S 
ENDBRANCH  16  17
BRANCH  16  22
ATOM     22  C   UNL     1     -30.113 -14.991  14.858  0.00  0.00    +0.148 C 
BRANCH  22  23
ATOM     23  C   UNL     1     -28.761 -14.622  14.328  0.00  0.00    +0.307 C 
ATOM     24  O   UNL     1     -28.657 -14.014  13.230  0.00  0.00    -0.251 OA
BRANCH  23  25
ATOM     25  O   UNL     1     -27.621 -14.916  15.071  0.00  0.00    -0.481 OA
ATOM     26  H   UNL     1     -26.777 -14.364  14.968  0.00  0.00    +0.295 HD
ENDBRANCH  23  25
ENDBRANCH  22  23
ENDBRANCH  16  22
ENDBRANCH   3  16
TORSDOF 10
ENDMDL
MODEL 7
REMARK VINA RESULT:    -3.936      2.810      7.678
REMARK INTER + INTRA:          -8.156
REMARK INTER:                  -6.753
REMARK INTRA:                  -1.403
REMARK UNBOUND:                -2.033
REMARK  Name = 
REMARK  11 active torsions:
REMARK  status: ('A' for Active; 'I' for Inactive)
REMARK    1  A    between atoms: C_1  and  C_2
REMARK    2  A    between atoms: C_2  and  O_3
REMARK    3  A    between atoms: O_3  and  C_4
REMARK    4  A    between atoms: C_7  and  O_10
REMARK    5  A    between atoms: O_10  and  C_11
REMARK    6  A    between atoms: C_11  and  C_12
REMARK    7  A    between atoms: N_14  and  C_15
REMARK    8  A    between atoms: C_15  and  C_16
REMARK    9  A    between atoms: C_15  and  C_20
REMARK   10  A    between atoms: C_16  and  C_17
REMARK   11  A    between atoms: C_17  and  O_19
REMARK                            x       y       z     vdW  Elec       q    Type
REMARK                         _______ _______ _______ _____ _____    ______ ____
ROOT
ATOM      1  C   UNL     1     -28.718 -13.202  17.752  0.00  0.00    +0.251 C 
ATOM      2  O   UNL     1     -28.312 -12.019  17.594  0.00  0.00    -0.272 OA
ATOM      3  N   UNL     1     -28.726 -13.798  19.058  0.00  0.00    -0.305 N 
ATOM      4  H   UNL     1     -29.055 -14.786  19.149  0.00  0.00    +0.149 HD
ENDROOT
BRANCH   1   5
ATOM      5  C   UNL     1     -29.242 -13.965  16.580  0.00  0.00    +0.324 C 
BRANCH   5   6
ATOM      6  O   UNL     1     -30.635 -14.197  16.761  0.00  0.00    -0.483 OA
BRANCH   6  10
ATOM      7  C   UNL     1     -33.727 -11.693  15.347  0.00  0.00    +0.121 A 
ATOM      8  C   UNL     1     -33.662 -12.082  16.690  0.00  0.00    +0.049 A 
ATOM      9  C   UNL     1     -32.633 -12.912  17.142  0.00  0.00    +0.049 A 
ATOM     10  C   UNL     1     -31.649 -13.369  16.259  0.00  0.00    +0.121 A 
ATOM     11  C   UNL     1     -31.710 -12.985  14.906  0.00  0.00    +0.049 A 
ATOM     12  C   UNL     1     -32.742 -12.155  14.453  0.00  0.00    +0.049 A 
BRANCH   7  13
ATOM     13  O   UNL     1     -34.786 -10.860  14.950  0.00  0.00    -0.492 OA
BRANCH  13  15
ATOM     14  C   UNL     1     -34.803  -8.436  14.760  0.00  0.00    +0.048 C 
ATOM     15  C   UNL     1     -34.688  -9.772  14.032  0.00  0.00    +0.225 C 
ENDBRANCH  13  15
ENDBRANCH   7  13
ENDBRANCH   6  10
ENDBRANCH   5   6
ENDBRANCH   1   5
BRANCH   3  16
ATOM     16  C   UNL     1     -28.335 -13.052  20.258  0.00  0.00    +0.120 C 
BRANCH  16  17
ATOM     17  C   UNL     1     -29.526 -12.311  20.804  0.00  0.00    +0.010 A 
ATOM     18  C   UNL     1     -30.857 -12.529  20.463  0.00  0.00    +0.013 A 
ATOM     19  C   UNL     1     -31.747 -11.708  21.166  0.00  0.00    +0.008 A 
ATOM     20  C   UNL     1     -31.124 -10.849  22.062  0.00  0.00    +0.045 A 
ATOM     21  S   UNL     1     -29.465 -11.112  21.980  0.00  0.00    -0.100 S 
ENDBRANCH  16  17
BRANCH  16  22
ATOM     22  C   UNL     1     -27.751 -14.008  21.313  0.00  0.00    +0.148 C 
BRANCH  22  23
ATOM     23  C   UNL     1     -26.327 -14.364  21.009  0.00  0.00    +0.307 C 
ATOM     24  O   UNL     1     -25.417 -14.090  21.835  0.00  0.00    -0.251 OA
BRANCH  23  25
ATOM     25  O   UNL     1     -26.018 -15.037  19.830  0.00  0.00    -0.481 OA
ATOM     26  H   UNL     1     -26.577 -15.822  19.518  0.00  0.00    +0.295 HD
ENDBRANCH  23  25
ENDBRANCH  22  23
ENDBRANCH  16  22
ENDBRANCH   3  16
TORSDOF 10
ENDMDL
MODEL 8
REMARK VINA RESULT:    -3.929      2.356      6.317
REMARK INTER + INTRA:          -8.144
REMARK INTER:                  -5.817
REMARK INTRA:                  -2.327
REMARK UNBOUND:                -2.033
REMARK  Name = 
REMARK  11 active torsions:
REMARK  status: ('A' for Active; 'I' for Inactive)
REMARK    1  A    between atoms: C_1  and  C_2
REMARK    2  A    between atoms: C_2  and  O_3
REMARK    3  A    between atoms: O_3  and  C_4
REMARK    4  A    between atoms: C_7  and  O_10
REMARK    5  A    between atoms: O_10  and  C_11
REMARK    6  A    between atoms: C_11  and  C_12
REMARK    7  A    between atoms: N_14  and  C_15
REMARK    8  A    between atoms: C_15  and  C_16
REMARK    9  A    between atoms: C_15  and  C_20
REMARK   10  A    between atoms: C_16  and  C_17
REMARK   11  A    between atoms: C_17  and  O_19
REMARK                            x       y       z     vdW  Elec       q    Type
REMARK                         _______ _______ _______ _____ _____    ______ ____
ROOT
ATOM      1  C   UNL     1     -32.033 -11.555  19.703  0.00  0.00    +0.251 C 
ATOM      2  O   UNL     1     -32.780 -12.465  20.152  0.00  0.00    -0.272 OA
ATOM      3  N   UNL     1     -30.747 -11.877  19.151  0.00  0.00    -0.305 N 
ATOM      4  H   UNL     1     -30.148 -11.094  18.803  0.00  0.00    +0.149 HD
ENDROOT
BRANCH   1   5
ATOM      5  C   UNL     1     -32.512 -10.140  19.700  0.00  0.00    +0.324 C 
BRANCH   5   6
ATOM      6  O   UNL     1     -33.513  -9.991  18.697  0.00  0.00    -0.483 OA
BRANCH   6  10
ATOM      7  C   UNL     1     -33.117 -11.126  14.649  0.00  0.00    +0.121 A 
ATOM      8  C   UNL     1     -34.233 -11.502  15.405  0.00  0.00    +0.049 A 
ATOM      9  C   UNL     1     -34.349 -11.119  16.744  0.00  0.00    +0.049 A 
ATOM     10  C   UNL     1     -33.349 -10.353  17.353  0.00  0.00    +0.121 A 
ATOM     11  C   UNL     1     -32.222  -9.973  16.600  0.00  0.00    +0.049 A 
ATOM     12  C   UNL     1     -32.106 -10.358  15.259  0.00  0.00    +0.049 A 
BRANCH   7  13
ATOM     13  O   UNL     1     -33.054 -11.543  13.310  0.00  0.00    -0.492 OA
BRANCH  13  15
ATOM     14  C   UNL     1     -32.860 -13.544  11.943  0.00  0.00    +0.048 C 
ATOM     15  C   UNL     1     -33.783 -12.633  12.744  0.00  0.00    +0.225 C 
ENDBRANCH  13  15
ENDBRANCH   7  13
ENDBRANCH   6  10
ENDBRANCH   5   6
ENDBRANCH   1   5
BRANCH   3  16
ATOM     16  C   UNL     1     -30.279 -13.260  19.022  0.00  0.00    +0.120 C 
BRANCH  16  17
ATOM     17  C   UNL     1     -30.331 -13.679  17.577  0.00  0.00    +0.010 A 
ATOM     18  C   UNL     1     -31.472 -14.025  16.862  0.00  0.00    +0.013 A 
ATOM     19  C   UNL     1     -31.210 -14.335  15.522  0.00  0.00    +0.008 A 
ATOM     20  C   UNL     1     -29.869 -14.228  15.177  0.00  0.00    +0.045 A 
ATOM     21  S   UNL     1     -29.009 -13.748  16.541  0.00  0.00    -0.100 S 
ENDBRANCH  16  17
BRANCH  16  22
ATOM     22  C   UNL     1     -28.852 -13.394  19.583  0.00  0.00    +0.148 C 
BRANCH  22  23
ATOM     23  C   UNL     1     -28.852 -13.477  21.079  0.00  0.00    +0.307 C 
ATOM     24  O   UNL     1     -29.186 -12.476  21.767  0.00  0.00    -0.251 OA
BRANCH  23  25
ATOM     25  O   UNL     1     -28.522 -14.674  21.708  0.00  0.00    -0.481 OA
ATOM     26  H   UNL     1     -27.745 -14.724  22.357  0.00  0.00    +0.295 HD
ENDBRANCH  23  25
ENDBRANCH  22  23
ENDBRANCH  16  22
ENDBRANCH   3  16
TORSDOF 10
ENDMDL
MODEL 9
REMARK VINA RESULT:    -3.502      2.816      4.600
REMARK INTER + INTRA:          -7.480
REMARK INTER:                  -4.820
REMARK INTRA:                  -2.659
REMARK UNBOUND:                -2.033
REMARK  Name = 
REMARK  11 active torsions:
REMARK  status: ('A' for Active; 'I' for Inactive)
REMARK    1  A    between atoms: C_1  and  C_2
REMARK    2  A    between atoms: C_2  and  O_3
REMARK    3  A    between atoms: O_3  and  C_4
REMARK    4  A    between atoms: C_7  and  O_10
REMARK    5  A    between atoms: O_10  and  C_11
REMARK    6  A    between atoms: C_11  and  C_12
REMARK    7  A    between atoms: N_14  and  C_15
REMARK    8  A    between atoms: C_15  and  C_16
REMARK    9  A    between atoms: C_15  and  C_20
REMARK   10  A    between atoms: C_16  and  C_17
REMARK   11  A    between atoms: C_17  and  O_19
REMARK                            x       y       z     vdW  Elec       q    Type
REMARK                         _______ _______ _______ _____ _____    ______ ____
ROOT
ATOM      1  C   UNL     1     -33.536 -10.349  17.031  0.00  0.00    +0.251 C 
ATOM      2  O   UNL     1     -34.249 -11.362  17.264  0.00  0.00    -0.272 OA
ATOM      3  N   UNL     1     -33.194  -9.441  18.089  0.00  0.00    -0.305 N 
ATOM      4  H   UNL     1     -32.615  -8.603  17.855  0.00  0.00    +0.149 HD
ENDROOT
BRANCH   1   5
ATOM      5  C   UNL     1     -33.005 -10.122  15.653  0.00  0.00    +0.324 C 
BRANCH   5   6
ATOM      6  O   UNL     1     -31.595  -9.932  15.725  0.00  0.00    -0.483 OA
BRANCH   6  10
ATOM      7  C   UNL     1     -28.893 -12.446  17.776  0.00  0.00    +0.121 A 
ATOM      8  C   UNL     1     -28.894 -11.061  17.977  0.00  0.00    +0.049 A 
ATOM      9  C   UNL     1     -29.795 -10.243  17.289  0.00  0.00    +0.049 A 
ATOM     10  C   UNL     1     -30.710 -10.794  16.387  0.00  0.00    +0.121 A 
ATOM     11  C   UNL     1     -30.712 -12.186  16.177  0.00  0.00    +0.049 A 
ATOM     12  C   UNL     1     -29.810 -13.006  16.865  0.00  0.00    +0.049 A 
BRANCH   7  13
ATOM     13  O   UNL     1     -27.963 -13.218  18.492  0.00  0.00    -0.492 OA
BRANCH  13  15
ATOM     14  C   UNL     1     -27.608 -13.948  20.784  0.00  0.00    +0.048 C 
ATOM     15  C   UNL     1     -27.374 -12.859  19.742  0.00  0.00    +0.225 C 
ENDBRANCH  13  15
ENDBRANCH   7  13
ENDBRANCH   6  10
ENDBRANCH   5   6
ENDBRANCH   1   5
BRANCH   3  16
ATOM     16  C   UNL     1     -33.592  -9.681  19.480  0.00  0.00    +0.120 C 
BRANCH  16  17
ATOM     17  C   UNL     1     -32.477 -10.380  20.211  0.00  0.00    +0.010 A 
ATOM     18  C   UNL     1     -32.234 -11.749  20.225  0.00  0.00    +0.013 A 
ATOM     19  C   UNL     1     -31.098 -12.100  20.964  0.00  0.00    +0.008 A 
ATOM     20  C   UNL     1     -30.442 -11.013  21.529  0.00  0.00    +0.045 A 
ATOM     21  S   UNL     1     -31.276  -9.615  21.106  0.00  0.00    -0.100 S 
ENDBRANCH  16  17
BRANCH  16  22
ATOM     22  C   UNL     1     -33.954  -8.353  20.168  0.00  0.00    +0.148 C 
BRANCH  22  23
ATOM     23  C   UNL     1     -33.757  -7.184  19.251  0.00  0.00    +0.307 C 
ATOM     24  O   UNL     1     -34.727  -6.432  18.969  0.00  0.00    -0.251 OA
BRANCH  23  25
ATOM     25  O   UNL     1     -32.491  -6.906  18.744  0.00  0.00    -0.481 OA
ATOM     26  H   UNL     1     -32.001  -6.058  19.006  0.00  0.00    +0.295 HD
ENDBRANCH  23  25
ENDBRANCH  22  23
ENDBRANCH  16  22
ENDBRANCH   3  16
TORSDOF 10
ENDMDL
