MODEL 1
REMARK VINA RESULT:    -4.831      0.000      0.000
REMARK INTER + INTRA:         -10.007
REMARK INTER:                  -6.949
REMARK INTRA:                  -3.058
REMARK UNBOUND:                -3.058
REMARK  Name = 
REMARK  10 active torsions:
REMARK  status: ('A' for Active; 'I' for Inactive)
REMARK    1  A    between atoms: C_1  and  O_2
REMARK    2  A    between atoms: O_2  and  C_3
REMARK    3  A    between atoms: C_3  and  C_4
REMARK    4  A    between atoms: C_3  and  C_5
REMARK    5  A    between atoms: C_3  and  C_19
REMARK    6  A    between atoms: N_7  and  CA_8
REMARK    7  A    between atoms: CA_8  and  CB_9
REMARK    8  A    between atoms: CA_8  and  C_16
REMARK    9  A    between atoms: CB_9  and  CG_10
REMARK   10  A    between atoms: C_16  and  OXT_18
REMARK                            x       y       z     vdW  Elec       q    Type
REMARK                         _______ _______ _______ _____ _____    ______ ____
ROOT
ATOM      1  C   UNK A   0     -29.130 -11.291  18.841  0.00  0.00    +0.250 C 
ATOM      2  O   UNK A   0     -28.196 -10.556  18.416  0.00  0.00    -0.272 OA
ATOM      3  N   PHE A   1     -30.390 -10.700  19.205  0.00  0.00    -0.299 N 
ATOM      4  H   PHE A   1     -31.139 -11.314  19.599  0.00  0.00    +0.150 HD
ENDROOT
BRANCH   1   5
ATOM      5  C   UNK A   0     -28.900 -12.782  18.998  0.00  0.00    +0.166 C 
ATOM      6  C   UNK A   0     -29.431 -13.171  20.404  0.00  0.00    +0.057 C 
BRANCH   5   7
ATOM      7  C   UNK A   0     -29.618 -13.485  17.834  0.00  0.00    -0.007 A 
ATOM      8  C   UNK A   0     -28.957 -13.594  16.593  0.00  0.00    +0.007 A 
ATOM      9  C   UNK A   0     -29.582 -14.200  15.501  0.00  0.00    +0.000 A 
ATOM     10  C   UNK A   0     -30.879 -14.697  15.624  0.00  0.00    +0.000 A 
ATOM     11  C   UNK A   0     -31.557 -14.585  16.838  0.00  0.00    +0.000 A 
ATOM     12  C   UNK A   0     -30.938 -13.980  17.936  0.00  0.00    +0.007 A 
ENDBRANCH   5   7
BRANCH   5  14
ATOM     13  C   UNK A   0     -26.911 -13.429  20.133  0.00  0.00    +0.195 C 
ATOM     14  O   UNK A   0     -27.491 -13.007  18.912  0.00  0.00    -0.363 OA
ENDBRANCH   5  14
ENDBRANCH   1   5
BRANCH   3  15
ATOM     15  CA  PHE A   1     -30.644  -9.263  19.070  0.00  0.00    +0.186 C 
BRANCH  15  16
ATOM     16  C   PHE A   1     -30.544  -8.604  20.418  0.00  0.00    +0.326 C 
ATOM     17  O   PHE A   1     -31.130  -9.103  21.416  0.00  0.00    -0.249 OA
BRANCH  16  18
ATOM     18  OXT PHE A   1     -29.828  -7.419  20.556  0.00  0.00    -0.479 OA
ATOM     19  HXT PHE A   1     -30.126  -6.705  21.210  0.00  0.00    +0.295 HD
ENDBRANCH  16  18
ENDBRANCH  15  16
BRANCH  15  20
ATOM     20  CB  PHE A   1     -32.031  -9.022  18.444  0.00  0.00    +0.069 C 
BRANCH  20  21
ATOM     21  CG  PHE A   1     -32.265  -9.908  17.247  0.00  0.00    -0.045 A 
ATOM     22  CD1 PHE A   1     -31.354  -9.906  16.177  0.00  0.00    +0.004 A 
ATOM     23  CE1 PHE A   1     -31.587 -10.704  15.052  0.00  0.00    +0.000 A 
ATOM     24  CZ  PHE A   1     -32.732 -11.503  14.985  0.00  0.00    +0.000 A 
ATOM     25  CE2 PHE A   1     -33.648 -11.503  16.042  0.00  0.00    +0.000 A 
ATOM     26  CD2 PHE A   1     -33.418 -10.707  17.168  0.00  0.00    +0.004 A 
ENDBRANCH  20  21
ENDBRANCH  15  20
ENDBRANCH   3  15
TORSDOF 8
ENDMDL
MODEL 2
REMARK VINA RESULT:    -4.235      2.418      4.560
REMARK INTER + INTRA:          -9.150
REMARK INTER:                  -6.302
REMARK INTRA:                  -2.848
REMARK UNBOUND:                -3.058
REMARK  Name = 
REMARK  10 active torsions:
REMARK  status: ('A' for Active; 'I' for Inactive)
REMARK    1  A    between atoms: C_1  and  O_2
REMARK    2  A    between atoms: O_2  and  C_3
REMARK    3  A    between atoms: C_3  and  C_4
REMARK    4  A    between atoms: C_3  and  C_5
REMARK    5  A    between atoms: C_3  and  C_19
REMARK    6  A    between atoms: N_7  and  CA_8
REMARK    7  A    between atoms: CA_8  and  CB_9
REMARK    8  A    between atoms: CA_8  and  C_16
REMARK    9  A    between atoms: CB_9  and  CG_10
REMARK   10  A    between atoms: C_16  and  OXT_18
REMARK                            x       y       z     vdW  Elec       q    Type
REMARK                         _______ _______ _______ _____ _____    ______ ____
ROOT
ATOM      1  C   UNK A   0     -31.026  -9.817  17.663  0.00  0.00    +0.250 C 
ATOM      2  O   UNK A   0     -30.170  -9.343  16.866  0.00  0.00    -0.272 OA
ATOM      3  N   PHE A   1     -32.301 -10.253  17.158  0.00  0.00    -0.299 N 
ATOM      4  H   PHE A   1     -33.018 -10.601  17.835  0.00  0.00    +0.150 HD
ENDROOT
BRANCH   1   5
ATOM      5  C   UNK A   0     -30.715  -9.887  19.145  0.00  0.00    +0.166 C 
ATOM      6  C   UNK A   0     -32.077  -9.987  19.884  0.00  0.00    +0.057 C 
BRANCH   5   7
ATOM      7  C   UNK A   0     -29.787 -11.093  19.366  0.00  0.00    -0.007 A 
ATOM      8  C   UNK A   0     -30.154 -12.070  20.314  0.00  0.00    +0.007 A 
ATOM      9  C   UNK A   0     -29.328 -13.167  20.567  0.00  0.00    +0.000 A 
ATOM     10  C   UNK A   0     -28.118 -13.305  19.886  0.00  0.00    +0.000 A 
ATOM     11  C   UNK A   0     -27.729 -12.341  18.956  0.00  0.00    +0.000 A 
ATOM     12  C   UNK A   0     -28.551 -11.240  18.697  0.00  0.00    +0.007 A 
ENDBRANCH   5   7
BRANCH   5  14
ATOM     13  C   UNK A   0     -30.735  -7.900  20.454  0.00  0.00    +0.195 C 
ATOM     14  O   UNK A   0     -30.039  -8.678  19.497  0.00  0.00    -0.363 OA
ENDBRANCH   5  14
ENDBRANCH   1   5
BRANCH   3  15
ATOM     15  CA  PHE A   1     -32.636 -10.194  15.733  0.00  0.00    +0.186 C 
BRANCH  15  16
ATOM     16  C   PHE A   1     -33.795  -9.260  15.524  0.00  0.00    +0.326 C 
ATOM     17  O   PHE A   1     -34.778  -9.613  14.819  0.00  0.00    -0.249 OA
BRANCH  16  18
ATOM     18  OXT PHE A   1     -33.766  -7.987  16.084  0.00  0.00    -0.479 OA
ATOM     19  HXT PHE A   1     -32.896  -7.581  16.409  0.00  0.00    +0.295 HD
ENDBRANCH  16  18
ENDBRANCH  15  16
BRANCH  15  20
ATOM     20  CB  PHE A   1     -32.965 -11.603  15.203  0.00  0.00    +0.069 C 
BRANCH  20  21
ATOM     21  CG  PHE A   1     -32.004 -12.638  15.732  0.00  0.00    -0.045 A 
ATOM     22  CD1 PHE A   1     -32.332 -13.388  16.874  0.00  0.00    +0.004 A 
ATOM     23  CE1 PHE A   1     -31.427 -14.325  17.384  0.00  0.00    +0.000 A 
ATOM     24  CZ  PHE A   1     -30.189 -14.514  16.763  0.00  0.00    +0.000 A 
ATOM     25  CE2 PHE A   1     -29.853 -13.764  15.632  0.00  0.00    +0.000 A 
ATOM     26  CD2 PHE A   1     -30.754 -12.827  15.119  0.00  0.00    +0.004 A 
ENDBRANCH  20  21
ENDBRANCH  15  20
ENDBRANCH   3  15
TORSDOF 8
ENDMDL
MODEL 3
REMARK VINA RESULT:    -4.221      2.234      4.862
REMARK INTER + INTRA:          -9.130
REMARK INTER:                  -5.969
REMARK INTRA:                  -3.161
REMARK UNBOUND:                -3.058
REMARK  Name = 
REMARK  10 active torsions:
REMARK  status: ('A' for Active; 'I' for Inactive)
REMARK    1  A    between atoms: C_1  and  O_2
REMARK    2  A    between atoms: O_2  and  C_3
REMARK    3  A    between atoms: C_3  and  C_4
REMARK    4  A    between atoms: C_3  and  C_5
REMARK    5  A    between atoms: C_3  and  C_19
REMARK    6  A    between atoms: N_7  and  CA_8
REMARK    7  A    between atoms: CA_8  and  CB_9
REMARK    8  A    between atoms: CA_8  and  C_16
REMARK    9  A    between atoms: CB_9  and  CG_10
REMARK   10  A    between atoms: C_16  and  OXT_18
REMARK                            x       y       z     vdW  Elec       q    Type
REMARK                         _______ _______ _______ _____ _____    ______ ____
ROOT
ATOM      1  C   UNK A   0     -29.994 -13.434  18.301  0.00  0.00    +0.250 C 
ATOM      2  O   UNK A   0     -30.784 -14.395  18.515  0.00  0.00    -0.272 OA
ATOM      3  N   PHE A   1     -29.643 -13.091  16.948  0.00  0.00    -0.299 N 
ATOM      4  H   PHE A   1     -28.953 -12.323  16.787  0.00  0.00    +0.150 HD
ENDROOT
BRANCH   1   5
ATOM      5  C   UNK A   0     -29.396 -12.678  19.471  0.00  0.00    +0.166 C 
ATOM      6  C   UNK A   0     -27.953 -12.281  19.057  0.00  0.00    +0.057 C 
BRANCH   5   7
ATOM      7  C   UNK A   0     -30.319 -11.485  19.770  0.00  0.00    -0.007 A 
ATOM      8  C   UNK A   0     -29.871 -10.184  19.461  0.00  0.00    +0.007 A 
ATOM      9  C   UNK A   0     -30.664  -9.069  19.740  0.00  0.00    +0.000 A 
ATOM     10  C   UNK A   0     -31.913  -9.231  20.341  0.00  0.00    +0.000 A 
ATOM     11  C   UNK A   0     -32.368 -10.508  20.669  0.00  0.00    +0.000 A 
ATOM     12  C   UNK A   0     -31.579 -11.629  20.393  0.00  0.00    +0.007 A 
ENDBRANCH   5   7
BRANCH   5  14
ATOM     13  C   UNK A   0     -28.075 -13.774  21.119  0.00  0.00    +0.195 C 
ATOM     14  O   UNK A   0     -29.372 -13.570  20.588  0.00  0.00    -0.363 OA
ENDBRANCH   5  14
ENDBRANCH   1   5
BRANCH   3  15
ATOM     15  CA  PHE A   1     -30.199 -13.805  15.795  0.00  0.00    +0.186 C 
BRANCH  15  16
ATOM     16  C   PHE A   1     -29.103 -14.549  15.085  0.00  0.00    +0.326 C 
ATOM     17  O   PHE A   1     -29.311 -15.062  13.953  0.00  0.00    -0.249 OA
BRANCH  16  18
ATOM     18  OXT PHE A   1     -27.862 -14.701  15.697  0.00  0.00    -0.479 OA
ATOM     19  HXT PHE A   1     -27.032 -14.278  15.301  0.00  0.00    +0.295 HD
ENDBRANCH  16  18
ENDBRANCH  15  16
BRANCH  15  20
ATOM     20  CB  PHE A   1     -30.897 -12.816  14.841  0.00  0.00    +0.069 C 
BRANCH  20  21
ATOM     21  CG  PHE A   1     -31.778 -11.847  15.588  0.00  0.00    -0.045 A 
ATOM     22  CD1 PHE A   1     -32.978 -12.288  16.173  0.00  0.00    +0.004 A 
ATOM     23  CE1 PHE A   1     -33.811 -11.384  16.838  0.00  0.00    +0.000 A 
ATOM     24  CZ  PHE A   1     -33.457 -10.034  16.918  0.00  0.00    +0.000 A 
ATOM     25  CE2 PHE A   1     -32.270  -9.586  16.331  0.00  0.00    +0.000 A 
ATOM     26  CD2 PHE A   1     -31.434 -10.487  15.666  0.00  0.00    +0.004 A 
ENDBRANCH  20  21
ENDBRANCH  15  20
ENDBRANCH   3  15
TORSDOF 8
ENDMDL
MODEL 4
REMARK VINA RESULT:    -4.215      2.333      4.747
REMARK INTER + INTRA:          -9.121
REMARK INTER:                  -6.079
REMARK INTRA:                  -3.042
REMARK UNBOUND:                -3.058
REMARK  Name = 
REMARK  10 active torsions:
REMARK  status: ('A' for Active; 'I' for Inactive)
REMARK    1  A    between atoms: C_1  and  O_2
REMARK    2  A    between atoms: O_2  and  C_3
REMARK    3  A    between atoms: C_3  and  C_4
REMARK    4  A    between atoms: C_3  and  C_5
REMARK    5  A    between atoms: C_3  and  C_19
REMARK    6  A    between atoms: N_7  and  CA_8
REMARK    7  A    between atoms: CA_8  and  CB_9
REMARK    8  A    between atoms: CA_8  and  C_16
REMARK    9  A    between atoms: CB_9  and  CG_10
REMARK   10  A    between atoms: C_16  and  OXT_18
REMARK                            x       y       z     vdW  Elec       q    Type
REMARK                         _______ _______ _______ _____ _____    ______ ____
ROOT
ATOM      1  C   UNK A   0     -29.070 -13.182  17.814  0.00  0.00    +0.250 C 
ATOM      2  O   UNK A   0     -27.856 -13.116  17.478  0.00  0.00    -0.272 OA
ATOM      3  N   PHE A   1     -29.434 -13.038  19.198  0.00  0.00    -0.299 N 
ATOM      4  H   PHE A   1     -30.439 -13.141  19.468  0.00  0.00    +0.150 HD
ENDROOT
BRANCH   1   5
ATOM      5  C   UNK A   0     -30.127 -13.452  16.759  0.00  0.00    +0.166 C 
ATOM      6  C   UNK A   0     -30.894 -14.725  17.210  0.00  0.00    +0.057 C 
BRANCH   5   7
ATOM      7  C   UNK A   0     -31.002 -12.193  16.651  0.00  0.00    -0.007 A 
ATOM      8  C   UNK A   0     -32.405 -12.339  16.629  0.00  0.00    +0.007 A 
ATOM      9  C   UNK A   0     -33.238 -11.225  16.503  0.00  0.00    +0.000 A 
ATOM     10  C   UNK A   0     -32.687  -9.948  16.387  0.00  0.00    +0.000 A 
ATOM     11  C   UNK A   0     -31.302  -9.783  16.391  0.00  0.00    +0.000 A 
ATOM     12  C   UNK A   0     -30.462 -10.894  16.516  0.00  0.00    +0.007 A 
ENDBRANCH   5   7
BRANCH   5  14
ATOM     13  C   UNK A   0     -29.643 -14.989  15.008  0.00  0.00    +0.195 C 
ATOM     14  O   UNK A   0     -29.447 -13.684  15.524  0.00  0.00    -0.363 OA
ENDBRANCH   5  14
ENDBRANCH   1   5
BRANCH   3  15
ATOM     15  CA  PHE A   1     -28.439 -12.781  20.242  0.00  0.00    +0.186 C 
BRANCH  15  16
ATOM     16  C   PHE A   1     -27.803 -14.077  20.663  0.00  0.00    +0.326 C 
ATOM     17  O   PHE A   1     -28.159 -14.644  21.731  0.00  0.00    -0.249 OA
BRANCH  16  18
ATOM     18  OXT PHE A   1     -26.793 -14.635  19.886  0.00  0.00    -0.479 OA
ATOM     19  HXT PHE A   1     -26.971 -14.924  18.931  0.00  0.00    +0.295 HD
ENDBRANCH  16  18
ENDBRANCH  15  16
BRANCH  15  20
ATOM     20  CB  PHE A   1     -29.095 -12.077  21.445  0.00  0.00    +0.069 C 
BRANCH  20  21
ATOM     21  CG  PHE A   1     -30.304 -11.276  21.032  0.00  0.00    -0.045 A 
ATOM     22  CD1 PHE A   1     -31.578 -11.867  21.031  0.00  0.00    +0.004 A 
ATOM     23  CE1 PHE A   1     -32.695 -11.135  20.617  0.00  0.00    +0.000 A 
ATOM     24  CZ  PHE A   1     -32.546  -9.810  20.196  0.00  0.00    +0.000 A 
ATOM     25  CE2 PHE A   1     -31.281  -9.217  20.186  0.00  0.00    +0.000 A 
ATOM     26  CD2 PHE A   1     -30.161  -9.946  20.599  0.00  0.00    +0.004 A 
ENDBRANCH  20  21
ENDBRANCH  15  20
ENDBRANCH   3  15
TORSDOF 8
ENDMDL
MODEL 5
REMARK VINA RESULT:    -3.816      2.128      4.456
REMARK INTER + INTRA:          -8.547
REMARK INTER:                  -5.850
REMARK INTRA:                  -2.697
REMARK UNBOUND:                -3.058
REMARK  Name = 
REMARK  10 active torsions:
REMARK  status: ('A' for Active; 'I' for Inactive)
REMARK    1  A    between atoms: C_1  and  O_2
REMARK    2  A    between atoms: O_2  and  C_3
REMARK    3  A    between atoms: C_3  and  C_4
REMARK    4  A    between atoms: C_3  and  C_5
REMARK    5  A    between atoms: C_3  and  C_19
REMARK    6  A    between atoms: N_7  and  CA_8
REMARK    7  A    between atoms: CA_8  and  CB_9
REMARK    8  A    between atoms: CA_8  and  C_16
REMARK    9  A    between atoms: CB_9  and  CG_10
REMARK   10  A    between atoms: C_16  and  OXT_18
REMARK                            x       y       z     vdW  Elec       q    Type
REMARK                         _______ _______ _______ _____ _____    ______ ____
ROOT
ATOM      1  C   UNK A   0     -32.332 -10.287  17.172  0.00  0.00    +0.250 C 
ATOM      2  O   UNK A   0     -31.905  -9.177  16.750  0.00  0.00    -0.272 OA
ATOM      3  N   PHE A   1     -32.343 -10.553  18.586  0.00  0.00    -0.299 N 
ATOM      4  H   PHE A   1     -32.656 -11.493  18.919  0.00  0.00    +0.150 HD
ENDROOT
BRANCH   1   5
ATOM      5  C   UNK A   0     -32.792 -11.340  16.182  0.00  0.00    +0.166 C 
ATOM      6  C   UNK A   0     -32.841 -10.655  14.790  0.00  0.00    +0.057 C 
BRANCH   5   7
ATOM      7  C   UNK A   0     -31.809 -12.518  16.273  0.00  0.00    -0.007 A 
ATOM      8  C   UNK A   0     -30.848 -12.682  15.254  0.00  0.00    +0.007 A 
ATOM      9  C   UNK A   0     -29.953 -13.755  15.281  0.00  0.00    +0.000 A 
ATOM     10  C   UNK A   0     -30.007 -14.686  16.318  0.00  0.00    +0.000 A 
ATOM     11  C   UNK A   0     -30.961 -14.551  17.327  0.00  0.00    +0.000 A 
ATOM     12  C   UNK A   0     -31.860 -13.480  17.307  0.00  0.00    +0.007 A 
ENDBRANCH   5   7
BRANCH   5  14
ATOM     13  C   UNK A   0     -35.061 -10.721  16.545  0.00  0.00    +0.195 C 
ATOM     14  O   UNK A   0     -34.098 -11.759  16.583  0.00  0.00    -0.363 OA
ENDBRANCH   5  14
ENDBRANCH   1   5
BRANCH   3  15
ATOM     15  CA  PHE A   1     -31.901  -9.560  19.569  0.00  0.00    +0.186 C 
BRANCH  15  16
ATOM     16  C   PHE A   1     -32.695  -8.294  19.399  0.00  0.00    +0.326 C 
ATOM     17  O   PHE A   1     -33.854  -8.200  19.886  0.00  0.00    -0.249 OA
BRANCH  16  18
ATOM     18  OXT PHE A   1     -32.160  -7.235  18.673  0.00  0.00    -0.479 OA
ATOM     19  HXT PHE A   1     -32.751  -6.649  18.097  0.00  0.00    +0.295 HD
ENDBRANCH  16  18
ENDBRANCH  15  16
BRANCH  15  20
ATOM     20  CB  PHE A   1     -30.393  -9.286  19.412  0.00  0.00    +0.069 C 
BRANCH  20  21
ATOM     21  CG  PHE A   1     -29.595 -10.565  19.373  0.00  0.00    -0.045 A 
ATOM     22  CD1 PHE A   1     -29.681 -11.484  20.432  0.00  0.00    +0.004 A 
ATOM     23  CE1 PHE A   1     -28.916 -12.655  20.412  0.00  0.00    +0.000 A 
ATOM     24  CZ  PHE A   1     -28.057 -12.913  19.339  0.00  0.00    +0.000 A 
ATOM     25  CE2 PHE A   1     -27.959 -11.998  18.287  0.00  0.00    +0.000 A 
ATOM     26  CD2 PHE A   1     -28.722 -10.827  18.303  0.00  0.00    +0.004 A 
ENDBRANCH  20  21
ENDBRANCH  15  20
ENDBRANCH   3  15
TORSDOF 8
ENDMDL
MODEL 6
REMARK VINA RESULT:    -3.791      1.590      4.746
REMARK INTER + INTRA:          -8.510
REMARK INTER:                  -5.504
REMARK INTRA:                  -3.006
REMARK UNBOUND:                -3.058
REMARK  Name = 
REMARK  10 active torsions:
REMARK  status: ('A' for Active; 'I' for Inactive)
REMARK    1  A    between atoms: C_1  and  O_2
REMARK    2  A    between atoms: O_2  and  C_3
REMARK    3  A    between atoms: C_3  and  C_4
REMARK    4  A    between atoms: C_3  and  C_5
REMARK    5  A    between atoms: C_3  and  C_19
REMARK    6  A    between atoms: N_7  and  CA_8
REMARK    7  A    between atoms: CA_8  and  CB_9
REMARK    8  A    between atoms: CA_8  and  C_16
REMARK    9  A    between atoms: CB_9  and  CG_10
REMARK   10  A    between atoms: C_16  and  OXT_18
REMARK                            x       y       z     vdW  Elec       q    Type
REMARK                         _______ _______ _______ _____ _____    ______ ____
ROOT
ATOM      1  C   UNK A   0     -31.955 -11.088  19.504  0.00  0.00    +0.250 C 
ATOM      2  O   UNK A   0     -32.664 -11.820  20.249  0.00  0.00    -0.272 OA
ATOM      3  N   PHE A   1     -30.535 -11.313  19.431  0.00  0.00    -0.299 N 
ATOM      4  H   PHE A   1     -29.953 -10.671  18.846  0.00  0.00    +0.150 HD
ENDROOT
BRANCH   1   5
ATOM      5  C   UNK A   0     -32.601  -9.958  18.726  0.00  0.00    +0.166 C 
ATOM      6  C   UNK A   0     -31.681  -8.718  18.892  0.00  0.00    +0.057 C 
BRANCH   5   7
ATOM      7  C   UNK A   0     -32.766 -10.433  17.274  0.00  0.00    -0.007 A 
ATOM      8  C   UNK A   0     -33.897 -11.204  16.935  0.00  0.00    +0.007 A 
ATOM      9  C   UNK A   0     -34.074 -11.681  15.634  0.00  0.00    +0.000 A 
ATOM     10  C   UNK A   0     -33.122 -11.405  14.652  0.00  0.00    +0.000 A 
ATOM     11  C   UNK A   0     -31.988 -10.658  14.970  0.00  0.00    +0.000 A 
ATOM     12  C   UNK A   0     -31.804 -10.177  16.270  0.00  0.00    +0.007 A 
ENDBRANCH   5   7
BRANCH   5  14
ATOM     13  C   UNK A   0     -33.930  -8.540  20.099  0.00  0.00    +0.195 C 
ATOM     14  O   UNK A   0     -33.882  -9.716  19.311  0.00  0.00    -0.363 OA
ENDBRANCH   5  14
ENDBRANCH   1   5
BRANCH   3  15
ATOM     15  CA  PHE A   1     -29.878 -12.393  20.173  0.00  0.00    +0.186 C 
BRANCH  15  16
ATOM     16  C   PHE A   1     -29.080 -11.813  21.307  0.00  0.00    +0.326 C 
ATOM     17  O   PHE A   1     -28.404 -12.565  22.059  0.00  0.00    -0.249 OA
BRANCH  16  18
ATOM     18  OXT PHE A   1     -29.115 -10.443  21.547  0.00  0.00    -0.479 OA
ATOM     19  HXT PHE A   1     -29.379  -9.794  20.816  0.00  0.00    +0.295 HD
ENDBRANCH  16  18
ENDBRANCH  15  16
BRANCH  15  20
ATOM     20  CB  PHE A   1     -28.977 -13.216  19.232  0.00  0.00    +0.069 C 
BRANCH  20  21
ATOM     21  CG  PHE A   1     -29.697 -13.601  17.964  0.00  0.00    -0.045 A 
ATOM     22  CD1 PHE A   1     -30.987 -14.153  18.023  0.00  0.00    +0.004 A 
ATOM     23  CE1 PHE A   1     -31.642 -14.540  16.849  0.00  0.00    +0.000 A 
ATOM     24  CZ  PHE A   1     -31.012 -14.383  15.611  0.00  0.00    +0.000 A 
ATOM     25  CE2 PHE A   1     -29.724 -13.843  15.546  0.00  0.00    +0.000 A 
ATOM     26  CD2 PHE A   1     -29.066 -13.455  16.717  0.00  0.00    +0.004 A 
ENDBRANCH  20  21
ENDBRANCH  15  20
ENDBRANCH   3  15
TORSDOF 8
ENDMDL
MODEL 7
REMARK VINA RESULT:    -3.685      2.473      4.911
REMARK INTER + INTRA:          -8.358
REMARK INTER:                  -7.151
REMARK INTRA:                  -1.207
REMARK UNBOUND:                -3.058
REMARK  Name = 
REMARK  10 active torsions:
REMARK  status: ('A' for Active; 'I' for Inactive)
REMARK    1  A    between atoms: C_1  and  O_2
REMARK    2  A    between atoms: O_2  and  C_3
REMARK    3  A    between atoms: C_3  and  C_4
REMARK    4  A    between atoms: C_3  and  C_5
REMARK    5  A    between atoms: C_3  and  C_19
REMARK    6  A    between atoms: N_7  and  CA_8
REMARK    7  A    between atoms: CA_8  and  CB_9
REMARK    8  A    between atoms: CA_8  and  C_16
REMARK    9  A    between atoms: CB_9  and  CG_10
REMARK   10  A    between atoms: C_16  and  OXT_18
REMARK                            x       y       z     vdW  Elec       q    Type
REMARK                         _______ _______ _______ _____ _____    ______ ____
ROOT
ATOM      1  C   UNK A   0     -31.165 -12.005  18.857  0.00  0.00    +0.250 C 
ATOM      2  O   UNK A   0     -32.317 -12.429  19.148  0.00  0.00    -0.272 OA
ATOM      3  N   PHE A   1     -30.652 -12.198  17.527  0.00  0.00    -0.299 N 
ATOM      4  H   PHE A   1     -29.678 -11.884  17.312  0.00  0.00    +0.150 HD
ENDROOT
BRANCH   1   5
ATOM      5  C   UNK A   0     -30.320 -11.333  19.923  0.00  0.00    +0.166 C 
ATOM      6  C   UNK A   0     -31.238 -11.127  21.158  0.00  0.00    +0.057 C 
BRANCH   5   7
ATOM      7  C   UNK A   0     -29.103 -12.235  20.184  0.00  0.00    -0.007 A 
ATOM      8  C   UNK A   0     -29.163 -13.171  21.238  0.00  0.00    +0.007 A 
ATOM      9  C   UNK A   0     -28.071 -13.992  21.529  0.00  0.00    +0.000 A 
ATOM     10  C   UNK A   0     -26.898 -13.888  20.781  0.00  0.00    +0.000 A 
ATOM     11  C   UNK A   0     -26.812 -12.958  19.744  0.00  0.00    +0.000 A 
ATOM     12  C   UNK A   0     -27.901 -12.133  19.447  0.00  0.00    +0.007 A 
ENDBRANCH   5   7
BRANCH   5  14
ATOM     13  C   UNK A   0     -30.956  -9.163  19.182  0.00  0.00    +0.195 C 
ATOM     14  O   UNK A   0     -29.893 -10.075  19.398  0.00  0.00    -0.363 OA
ENDBRANCH   5  14
ENDBRANCH   1   5
BRANCH   3  15
ATOM     15  CA  PHE A   1     -31.439 -12.847  16.475  0.00  0.00    +0.186 C 
BRANCH  15  16
ATOM     16  C   PHE A   1     -31.396 -14.339  16.660  0.00  0.00    +0.326 C 
ATOM     17  O   PHE A   1     -30.656 -15.050  15.927  0.00  0.00    -0.249 OA
BRANCH  16  18
ATOM     18  OXT PHE A   1     -32.201 -14.939  17.622  0.00  0.00    -0.479 OA
ATOM     19  HXT PHE A   1     -31.797 -15.348  18.457  0.00  0.00    +0.295 HD
ENDBRANCH  16  18
ENDBRANCH  15  16
BRANCH  15  20
ATOM     20  CB  PHE A   1     -30.904 -12.451  15.086  0.00  0.00    +0.069 C 
BRANCH  20  21
ATOM     21  CG  PHE A   1     -31.995 -12.460  14.044  0.00  0.00    -0.045 A 
ATOM     22  CD1 PHE A   1     -33.170 -11.716  14.244  0.00  0.00    +0.004 A 
ATOM     23  CE1 PHE A   1     -34.194 -11.749  13.293  0.00  0.00    +0.000 A 
ATOM     24  CZ  PHE A   1     -34.056 -12.528  12.141  0.00  0.00    +0.000 A 
ATOM     25  CE2 PHE A   1     -32.894 -13.278  11.940  0.00  0.00    +0.000 A 
ATOM     26  CD2 PHE A   1     -31.867 -13.248  12.888  0.00  0.00    +0.004 A 
ENDBRANCH  20  21
ENDBRANCH  15  20
ENDBRANCH   3  15
TORSDOF 8
ENDMDL
MODEL 8
REMARK VINA RESULT:    -3.622      2.513      4.743
REMARK INTER + INTRA:          -8.268
REMARK INTER:                  -6.048
REMARK INTRA:                  -2.220
REMARK UNBOUND:                -3.058
REMARK  Name = 
REMARK  10 active torsions:
REMARK  status: ('A' for Active; 'I' for Inactive)
REMARK    1  A    between atoms: C_1  and  O_2
REMARK    2  A    between atoms: O_2  and  C_3
REMARK    3  A    between atoms: C_3  and  C_4
REMARK    4  A    between atoms: C_3  and  C_5
REMARK    5  A    between atoms: C_3  and  C_19
REMARK    6  A    between atoms: N_7  and  CA_8
REMARK    7  A    between atoms: CA_8  and  CB_9
REMARK    8  A    between atoms: CA_8  and  C_16
REMARK    9  A    between atoms: CB_9  and  CG_10
REMARK   10  A    between atoms: C_16  and  OXT_18
REMARK                            x       y       z     vdW  Elec       q    Type
REMARK                         _______ _______ _______ _____ _____    ______ ____
ROOT
ATOM      1  C   UNK A   0     -32.531 -11.821  17.114  0.00  0.00    +0.250 C 
ATOM      2  O   UNK A   0     -33.264 -12.830  17.309  0.00  0.00    -0.272 OA
ATOM      3  N   PHE A   1     -32.235 -10.934  18.207  0.00  0.00    -0.299 N 
ATOM      4  H   PHE A   1     -31.665 -10.078  18.021  0.00  0.00    +0.150 HD
ENDROOT
BRANCH   1   5
ATOM      5  C   UNK A   0     -32.002 -11.536  15.721  0.00  0.00    +0.166 C 
ATOM      6  C   UNK A   0     -31.229 -10.192  15.802  0.00  0.00    +0.057 C 
BRANCH   5   7
ATOM      7  C   UNK A   0     -31.140 -12.737  15.300  0.00  0.00    -0.007 A 
ATOM      8  C   UNK A   0     -30.202 -13.255  16.216  0.00  0.00    +0.007 A 
ATOM      9  C   UNK A   0     -29.378 -14.328  15.867  0.00  0.00    +0.000 A 
ATOM     10  C   UNK A   0     -29.468 -14.895  14.595  0.00  0.00    +0.000 A 
ATOM     11  C   UNK A   0     -30.378 -14.386  13.668  0.00  0.00    +0.000 A 
ATOM     12  C   UNK A   0     -31.207 -13.313  14.011  0.00  0.00    +0.007 A 
ENDBRANCH   5   7
BRANCH   5  14
ATOM     13  C   UNK A   0     -33.777 -10.157  14.939  0.00  0.00    +0.195 C 
ATOM     14  O   UNK A   0     -33.131 -11.415  14.853  0.00  0.00    -0.363 OA
ENDBRANCH   5  14
ENDBRANCH   1   5
BRANCH   3  15
ATOM     15  CA  PHE A   1     -32.734 -11.178  19.564  0.00  0.00    +0.186 C 
BRANCH  15  16
ATOM     16  C   PHE A   1     -33.849 -10.219  19.872  0.00  0.00    +0.326 C 
ATOM     17  O   PHE A   1     -33.991  -9.760  21.037  0.00  0.00    -0.249 OA
BRANCH  16  18
ATOM     18  OXT PHE A   1     -34.750  -9.862  18.873  0.00  0.00    -0.479 OA
ATOM     19  HXT PHE A   1     -35.558 -10.439  18.671  0.00  0.00    +0.295 HD
ENDBRANCH  16  18
ENDBRANCH  15  16
BRANCH  15  20
ATOM     20  CB  PHE A   1     -31.590 -11.036  20.586  0.00  0.00    +0.069 C 
BRANCH  20  21
ATOM     21  CG  PHE A   1     -30.297 -11.607  20.062  0.00  0.00    -0.045 A 
ATOM     22  CD1 PHE A   1     -29.944 -12.937  20.348  0.00  0.00    +0.004 A 
ATOM     23  CE1 PHE A   1     -28.730 -13.457  19.889  0.00  0.00    +0.000 A 
ATOM     24  CZ  PHE A   1     -27.859 -12.654  19.147  0.00  0.00    +0.000 A 
ATOM     25  CE2 PHE A   1     -28.199 -11.328  18.867  0.00  0.00    +0.000 A 
ATOM     26  CD2 PHE A   1     -29.412 -10.803  19.324  0.00  0.00    +0.004 A 
ENDBRANCH  20  21
ENDBRANCH  15  20
ENDBRANCH   3  15
TORSDOF 8
ENDMDL
