MODEL 1
REMARK VINA RESULT:    -4.814      0.000      0.000
REMARK INTER + INTRA:          -8.245
REMARK INTER:                  -6.643
REMARK INTRA:                  -1.603
REMARK UNBOUND:                -1.603
REMARK  Name = 
REMARK  8 active torsions:
REMARK  status: ('A' for Active; 'I' for Inactive)
REMARK    1  A    between atoms: C_1  and  O_2
REMARK    2  A    between atoms: O_2  and  C_3
REMARK    3  A    between atoms: C_6  and  C_9
REMARK    4  A    between atoms: C_9  and  C_10
REMARK    5  A    between atoms: C_9  and  N_14
REMARK    6  A    between atoms: C_10  and  C_11
REMARK    7  A    between atoms: C_11  and  O_13
REMARK    8  A    between atoms: C_15  and  C_17
REMARK                            x       y       z     vdW  Elec       q    Type
REMARK                         _______ _______ _______ _____ _____    ______ ____
ROOT
ATOM      1  C   UNL     1     -30.846 -11.761  18.120  0.00  0.00    +0.114 C 
ENDROOT
BRANCH   1   5
ATOM      2  C   UNL     1     -27.674 -13.315  20.632  0.00  0.00    +0.120 A 
ATOM      3  C   UNL     1     -27.369 -12.577  19.473  0.00  0.00    +0.046 A 
ATOM      4  C   UNL     1     -28.394 -12.076  18.665  0.00  0.00    +0.009 A 
ATOM      5  C   UNL     1     -29.739 -12.296  19.004  0.00  0.00    -0.026 A 
ATOM      6  C   UNL     1     -30.040 -13.041  20.157  0.00  0.00    +0.009 A 
ATOM      7  C   UNL     1     -29.014 -13.542  20.963  0.00  0.00    +0.046 A 
BRANCH   2   9
ATOM      8  C   UNL     1     -25.467 -14.426  21.018  0.00  0.00    +0.277 C 
ATOM      9  O   UNL     1     -26.681 -13.837  21.475  0.00  0.00    -0.495 OA
ENDBRANCH   2   9
ENDBRANCH   1   5
BRANCH   1  10
ATOM     10  N   UNL     1     -30.582 -12.110  16.719  0.00  0.00    -0.304 N 
ATOM     11  C   UNL     1     -30.860 -13.419  16.199  0.00  0.00    +0.247 C 
ATOM     12  O   UNL     1     -31.546 -14.230  16.878  0.00  0.00    -0.270 OA
ATOM     13  H   UNL     1     -30.202 -11.381  16.073  0.00  0.00    +0.150 HD
BRANCH  11  14
ATOM     14  C   UNL     1     -30.380 -13.822  14.858  0.00  0.00    +0.075 A 
ATOM     15  C   UNL     1     -31.266 -13.796  13.767  0.00  0.00    +0.016 A 
ATOM     16  C   UNL     1     -30.833 -14.172  12.492  0.00  0.00    +0.004 A 
ATOM     17  C   UNL     1     -29.515 -14.588  12.295  0.00  0.00    +0.041 A 
ATOM     18  C   UNL     1     -28.629 -14.637  13.373  0.00  0.00    +0.159 A 
ATOM     19  F   UNL     1     -27.355 -15.062  13.180  0.00  0.00    -0.202 F 
ATOM     20  C   UNL     1     -29.055 -14.261  14.654  0.00  0.00    +0.170 A 
ATOM     21  F   UNL     1     -28.188 -14.376  15.691  0.00  0.00    -0.202 F 
ENDBRANCH  11  14
ENDBRANCH   1  10
BRANCH   1  22
ATOM     22  C   UNL     1     -30.973 -10.237  18.301  0.00  0.00    +0.147 C 
BRANCH  22  23
ATOM     23  C   UNL     1     -31.062  -9.537  16.980  0.00  0.00    +0.307 C 
ATOM     24  O   UNL     1     -30.030  -9.394  16.270  0.00  0.00    -0.251 OA
BRANCH  23  25
ATOM     25  O   UNL     1     -32.278  -9.014  16.551  0.00  0.00    -0.481 OA
ATOM     26  H   UNL     1     -32.325  -8.103  16.110  0.00  0.00    +0.295 HD
ENDBRANCH  23  25
ENDBRANCH  22  23
ENDBRANCH   1  22
TORSDOF 7
ENDMDL
MODEL 2
REMARK VINA RESULT:    -4.619      2.827      6.402
REMARK INTER + INTRA:          -7.977
REMARK INTER:                  -7.092
REMARK INTRA:                  -0.884
REMARK UNBOUND:                -1.603
REMARK  Name = 
REMARK  8 active torsions:
REMARK  status: ('A' for Active; 'I' for Inactive)
REMARK    1  A    between atoms: C_1  and  O_2
REMARK    2  A    between atoms: O_2  and  C_3
REMARK    3  A    between atoms: C_6  and  C_9
REMARK    4  A    between atoms: C_9  and  C_10
REMARK    5  A    between atoms: C_9  and  N_14
REMARK    6  A    between atoms: C_10  and  C_11
REMARK    7  A    between atoms: C_11  and  O_13
REMARK    8  A    between atoms: C_15  and  C_17
REMARK                            x       y       z     vdW  Elec       q    Type
REMARK                         _______ _______ _______ _____ _____    ______ ____
ROOT
ATOM      1  C   UNL     1     -30.411 -10.155  17.596  0.00  0.00    +0.114 C 
ENDROOT
BRANCH   1   5
ATOM      2  C   UNL     1     -31.965 -12.537  14.325  0.00  0.00    +0.120 A 
ATOM      3  C   UNL     1     -31.080 -13.103  15.261  0.00  0.00    +0.046 A 
ATOM      4  C   UNL     1     -30.581 -12.334  16.316  0.00  0.00    +0.009 A 
ATOM      5  C   UNL     1     -30.963 -10.989  16.459  0.00  0.00    -0.026 A 
ATOM      6  C   UNL     1     -31.840 -10.425  15.516  0.00  0.00    +0.009 A 
ATOM      7  C   UNL     1     -32.337 -11.196  14.462  0.00  0.00    +0.046 A 
BRANCH   2   9
ATOM      8  C   UNL     1     -33.505 -12.786  12.371  0.00  0.00    +0.277 C 
ATOM      9  O   UNL     1     -32.494 -13.268  13.251  0.00  0.00    -0.495 OA
ENDBRANCH   2   9
ENDBRANCH   1   5
BRANCH   1  10
ATOM     10  N   UNL     1     -29.897 -11.031  18.656  0.00  0.00    -0.304 N 
ATOM     11  C   UNL     1     -28.498 -11.332  18.777  0.00  0.00    +0.247 C 
ATOM     12  O   UNL     1     -27.655 -10.671  18.111  0.00  0.00    -0.270 OA
ATOM     13  H   UNL     1     -30.561 -11.430  19.358  0.00  0.00    +0.150 HD
BRANCH  11  14
ATOM     14  C   UNL     1     -28.025 -12.389  19.700  0.00  0.00    +0.075 A 
ATOM     15  C   UNL     1     -28.940 -13.021  20.559  0.00  0.00    +0.016 A 
ATOM     16  C   UNL     1     -28.516 -14.022  21.437  0.00  0.00    +0.004 A 
ATOM     17  C   UNL     1     -27.171 -14.395  21.474  0.00  0.00    +0.041 A 
ATOM     18  C   UNL     1     -26.246 -13.764  20.639  0.00  0.00    +0.159 A 
ATOM     19  F   UNL     1     -24.938 -14.116  20.695  0.00  0.00    -0.202 F 
ATOM     20  C   UNL     1     -26.665 -12.760  19.756  0.00  0.00    +0.170 A 
ATOM     21  F   UNL     1     -25.734 -12.124  19.001  0.00  0.00    -0.202 F 
ENDBRANCH  11  14
ENDBRANCH   1  10
BRANCH   1  22
ATOM     22  C   UNL     1     -31.503  -9.212  18.133  0.00  0.00    +0.147 C 
BRANCH  22  23
ATOM     23  C   UNL     1     -31.220  -8.799  19.545  0.00  0.00    +0.307 C 
ATOM     24  O   UNL     1     -32.144  -8.806  20.402  0.00  0.00    -0.251 OA
BRANCH  23  25
ATOM     25  O   UNL     1     -29.944  -8.374  19.902  0.00  0.00    -0.481 OA
ATOM     26  H   UNL     1     -29.280  -9.015  20.317  0.00  0.00    +0.295 HD
ENDBRANCH  23  25
ENDBRANCH  22  23
ENDBRANCH   1  22
TORSDOF 7
ENDMDL
MODEL 3
REMARK VINA RESULT:    -4.578      2.218      2.650
REMARK INTER + INTRA:          -7.921
REMARK INTER:                  -6.902
REMARK INTRA:                  -1.018
REMARK UNBOUND:                -1.603
REMARK  Name = 
REMARK  8 active torsions:
REMARK  status: ('A' for Active; 'I' for Inactive)
REMARK    1  A    between atoms: C_1  and  O_2
REMARK    2  A    between atoms: O_2  and  C_3
REMARK    3  A    between atoms: C_6  and  C_9
REMARK    4  A    between atoms: C_9  and  C_10
REMARK    5  A    between atoms: C_9  and  N_14
REMARK    6  A    between atoms: C_10  and  C_11
REMARK    7  A    between atoms: C_11  and  O_13
REMARK    8  A    between atoms: C_15  and  C_17
REMARK                            x       y       z     vdW  Elec       q    Type
REMARK                         _______ _______ _______ _____ _____    ______ ____
ROOT
ATOM      1  C   UNL     1     -31.264 -10.675  17.881  0.00  0.00    +0.114 C 
ENDROOT
BRANCH   1   5
ATOM      2  C   UNL     1     -27.656 -12.712  19.156  0.00  0.00    +0.120 A 
ATOM      3  C   UNL     1     -27.577 -11.531  18.396  0.00  0.00    +0.046 A 
ATOM      4  C   UNL     1     -28.742 -10.874  17.987  0.00  0.00    +0.009 A 
ATOM      5  C   UNL     1     -30.004 -11.382  18.336  0.00  0.00    -0.026 A 
ATOM      6  C   UNL     1     -30.080 -12.568  19.086  0.00  0.00    +0.009 A 
ATOM      7  C   UNL     1     -28.914 -13.223  19.494  0.00  0.00    +0.046 A 
BRANCH   2   9
ATOM      8  C   UNL     1     -26.475 -14.235  20.748  0.00  0.00    +0.277 C 
ATOM      9  O   UNL     1     -26.517 -13.406  19.591  0.00  0.00    -0.495 OA
ENDBRANCH   2   9
ENDBRANCH   1   5
BRANCH   1  10
ATOM     10  N   UNL     1     -31.505 -10.946  16.459  0.00  0.00    -0.304 N 
ATOM     11  C   UNL     1     -32.579 -11.794  16.022  0.00  0.00    +0.247 C 
ATOM     12  O   UNL     1     -33.474 -12.143  16.839  0.00  0.00    -0.270 OA
ATOM     13  H   UNL     1     -30.896 -10.495  15.740  0.00  0.00    +0.150 HD
BRANCH  11  14
ATOM     14  C   UNL     1     -32.670 -12.240  14.613  0.00  0.00    +0.075 A 
ATOM     15  C   UNL     1     -33.840 -11.980  13.877  0.00  0.00    +0.016 A 
ATOM     16  C   UNL     1     -33.947 -12.391  12.546  0.00  0.00    +0.004 A 
ATOM     17  C   UNL     1     -32.892 -13.075  11.938  0.00  0.00    +0.041 A 
ATOM     18  C   UNL     1     -31.732 -13.356  12.661  0.00  0.00    +0.159 A 
ATOM     19  F   UNL     1     -30.719 -14.040  12.072  0.00  0.00    -0.202 F 
ATOM     20  C   UNL     1     -31.617 -12.947  13.997  0.00  0.00    +0.170 A 
ATOM     21  F   UNL     1     -30.502 -13.287  14.691  0.00  0.00    -0.202 F 
ENDBRANCH  11  14
ENDBRANCH   1  10
BRANCH   1  22
ATOM     22  C   UNL     1     -31.143  -9.163  18.147  0.00  0.00    +0.147 C 
BRANCH  22  23
ATOM     23  C   UNL     1     -31.063  -8.873  19.615  0.00  0.00    +0.307 C 
ATOM     24  O   UNL     1     -32.032  -9.159  20.368  0.00  0.00    -0.251 OA
BRANCH  23  25
ATOM     25  O   UNL     1     -29.933  -8.254  20.141  0.00  0.00    -0.481 OA
ATOM     26  H   UNL     1     -29.949  -7.844  21.066  0.00  0.00    +0.295 HD
ENDBRANCH  23  25
ENDBRANCH  22  23
ENDBRANCH   1  22
TORSDOF 7
ENDMDL
MODEL 4
REMARK VINA RESULT:    -4.560      2.053      2.697
REMARK INTER + INTRA:          -7.896
REMARK INTER:                  -6.450
REMARK INTRA:                  -1.445
REMARK UNBOUND:                -1.603
REMARK  Name = 
REMARK  8 active torsions:
REMARK  status: ('A' for Active; 'I' for Inactive)
REMARK    1  A    between atoms: C_1  and  O_2
REMARK    2  A    between atoms: O_2  and  C_3
REMARK    3  A    between atoms: C_6  and  C_9
REMARK    4  A    between atoms: C_9  and  C_10
REMARK    5  A    between atoms: C_9  and  N_14
REMARK    6  A    between atoms: C_10  and  C_11
REMARK    7  A    between atoms: C_11  and  O_13
REMARK    8  A    between atoms: C_15  and  C_17
REMARK                            x       y       z     vdW  Elec       q    Type
REMARK                         _______ _______ _______ _____ _____    ______ ____
ROOT
ATOM      1  C   UNL     1     -31.478 -10.797  18.032  0.00  0.00    +0.114 C 
ENDROOT
BRANCH   1   5
ATOM      2  C   UNL     1     -27.735 -12.652  19.190  0.00  0.00    +0.120 A 
ATOM      3  C   UNL     1     -28.962 -13.252  19.528  0.00  0.00    +0.046 A 
ATOM      4  C   UNL     1     -30.168 -12.653  19.152  0.00  0.00    +0.009 A 
ATOM      5  C   UNL     1     -30.170 -11.449  18.427  0.00  0.00    -0.026 A 
ATOM      6  C   UNL     1     -28.942 -10.848  18.100  0.00  0.00    +0.009 A 
ATOM      7  C   UNL     1     -27.737 -11.449  18.476  0.00  0.00    +0.046 A 
BRANCH   2   9
ATOM      8  C   UNL     1     -26.293 -14.058  20.671  0.00  0.00    +0.277 C 
ATOM      9  O   UNL     1     -26.499 -13.215  19.542  0.00  0.00    -0.495 OA
ENDBRANCH   2   9
ENDBRANCH   1   5
BRANCH   1  10
ATOM     10  N   UNL     1     -31.718 -10.985  16.597  0.00  0.00    -0.304 N 
ATOM     11  C   UNL     1     -32.705 -11.907  16.108  0.00  0.00    +0.247 C 
ATOM     12  O   UNL     1     -33.542 -12.410  16.906  0.00  0.00    -0.270 OA
ATOM     13  H   UNL     1     -31.174 -10.418  15.907  0.00  0.00    +0.150 HD
BRANCH  11  14
ATOM     14  C   UNL     1     -32.777 -12.253  14.670  0.00  0.00    +0.075 A 
ATOM     15  C   UNL     1     -33.924 -11.913  13.931  0.00  0.00    +0.016 A 
ATOM     16  C   UNL     1     -34.013 -12.229  12.572  0.00  0.00    +0.004 A 
ATOM     17  C   UNL     1     -32.962 -12.896  11.939  0.00  0.00    +0.041 A 
ATOM     18  C   UNL     1     -31.824 -13.256  12.665  0.00  0.00    +0.159 A 
ATOM     19  F   UNL     1     -30.816 -13.924  12.050  0.00  0.00    -0.202 F 
ATOM     20  C   UNL     1     -31.728 -12.942  14.027  0.00  0.00    +0.170 A 
ATOM     21  F   UNL     1     -30.637 -13.358  14.718  0.00  0.00    -0.202 F 
ENDBRANCH  11  14
ENDBRANCH   1  10
BRANCH   1  22
ATOM     22  C   UNL     1     -31.453  -9.303  18.402  0.00  0.00    +0.147 C 
BRANCH  22  23
ATOM     23  C   UNL     1     -32.738  -8.628  18.034  0.00  0.00    +0.307 C 
ATOM     24  O   UNL     1     -33.541  -8.263  18.934  0.00  0.00    -0.251 OA
BRANCH  23  25
ATOM     25  O   UNL     1     -33.063  -8.436  16.694  0.00  0.00    -0.481 OA
ATOM     26  H   UNL     1     -33.346  -7.526  16.353  0.00  0.00    +0.295 HD
ENDBRANCH  23  25
ENDBRANCH  22  23
ENDBRANCH   1  22
TORSDOF 7
ENDMDL
MODEL 5
REMARK VINA RESULT:    -4.431      2.437      2.955
REMARK INTER + INTRA:          -7.717
REMARK INTER:                  -6.207
REMARK INTRA:                  -1.510
REMARK UNBOUND:                -1.603
REMARK  Name = 
REMARK  8 active torsions:
REMARK  status: ('A' for Active; 'I' for Inactive)
REMARK    1  A    between atoms: C_1  and  O_2
REMARK    2  A    between atoms: O_2  and  C_3
REMARK    3  A    between atoms: C_6  and  C_9
REMARK    4  A    between atoms: C_9  and  C_10
REMARK    5  A    between atoms: C_9  and  N_14
REMARK    6  A    between atoms: C_10  and  C_11
REMARK    7  A    between atoms: C_11  and  O_13
REMARK    8  A    between atoms: C_15  and  C_17
REMARK                            x       y       z     vdW  Elec       q    Type
REMARK                         _______ _______ _______ _____ _____    ______ ____
ROOT
ATOM      1  C   UNL     1     -31.167 -11.328  18.433  0.00  0.00    +0.114 C 
ENDROOT
BRANCH   1   5
ATOM      2  C   UNL     1     -27.219 -12.779  19.483  0.00  0.00    +0.120 A 
ATOM      3  C   UNL     1     -28.367 -13.359  20.055  0.00  0.00    +0.046 A 
ATOM      4  C   UNL     1     -29.640 -12.890  19.713  0.00  0.00    +0.009 A 
ATOM      5  C   UNL     1     -29.788 -11.841  18.791  0.00  0.00    -0.026 A 
ATOM      6  C   UNL     1     -28.638 -11.258  18.230  0.00  0.00    +0.009 A 
ATOM      7  C   UNL     1     -27.367 -11.728  18.572  0.00  0.00    +0.046 A 
BRANCH   2   9
ATOM      8  C   UNL     1     -25.621 -14.226  20.750  0.00  0.00    +0.277 C 
ATOM      9  O   UNL     1     -25.922 -13.215  19.792  0.00  0.00    -0.495 OA
ENDBRANCH   2   9
ENDBRANCH   1   5
BRANCH   1  10
ATOM     10  N   UNL     1     -31.386 -11.451  16.987  0.00  0.00    -0.304 N 
ATOM     11  C   UNL     1     -31.940 -12.641  16.403  0.00  0.00    +0.247 C 
ATOM     12  O   UNL     1     -32.456 -13.520  17.144  0.00  0.00    -0.270 OA
ATOM     13  H   UNL     1     -31.156 -10.644  16.363  0.00  0.00    +0.150 HD
BRANCH  11  14
ATOM     14  C   UNL     1     -31.942 -12.838  14.935  0.00  0.00    +0.075 A 
ATOM     15  C   UNL     1     -30.944 -13.629  14.341  0.00  0.00    +0.016 A 
ATOM     16  C   UNL     1     -30.927 -13.829  12.957  0.00  0.00    +0.004 A 
ATOM     17  C   UNL     1     -31.900 -13.234  12.152  0.00  0.00    +0.041 A 
ATOM     18  C   UNL     1     -32.887 -12.430  12.727  0.00  0.00    +0.159 A 
ATOM     19  F   UNL     1     -33.817 -11.837  11.938  0.00  0.00    -0.202 F 
ATOM     20  C   UNL     1     -32.911 -12.225  14.113  0.00  0.00    +0.170 A 
ATOM     21  F   UNL     1     -33.846 -11.392  14.635  0.00  0.00    -0.202 F 
ENDBRANCH  11  14
ENDBRANCH   1  10
BRANCH   1  22
ATOM     22  C   UNL     1     -31.322  -9.869  18.898  0.00  0.00    +0.147 C 
BRANCH  22  23
ATOM     23  C   UNL     1     -32.501  -9.212  18.249  0.00  0.00    +0.307 C 
ATOM     24  O   UNL     1     -33.474  -9.910  17.854  0.00  0.00    -0.251 OA
BRANCH  23  25
ATOM     25  O   UNL     1     -32.507  -7.835  18.049  0.00  0.00    -0.481 OA
ATOM     26  H   UNL     1     -33.158  -7.407  17.402  0.00  0.00    +0.295 HD
ENDBRANCH  23  25
ENDBRANCH  22  23
ENDBRANCH   1  22
TORSDOF 7
ENDMDL
MODEL 6
REMARK VINA RESULT:    -4.378      2.662      5.030
REMARK INTER + INTRA:          -7.644
REMARK INTER:                  -6.177
REMARK INTRA:                  -1.467
REMARK UNBOUND:                -1.603
REMARK  Name = 
REMARK  8 active torsions:
REMARK  status: ('A' for Active; 'I' for Inactive)
REMARK    1  A    between atoms: C_1  and  O_2
REMARK    2  A    between atoms: O_2  and  C_3
REMARK    3  A    between atoms: C_6  and  C_9
REMARK    4  A    between atoms: C_9  and  C_10
REMARK    5  A    between atoms: C_9  and  N_14
REMARK    6  A    between atoms: C_10  and  C_11
REMARK    7  A    between atoms: C_11  and  O_13
REMARK    8  A    between atoms: C_15  and  C_17
REMARK                            x       y       z     vdW  Elec       q    Type
REMARK                         _______ _______ _______ _____ _____    ______ ____
ROOT
ATOM      1  C   UNL     1     -29.061 -12.359  19.838  0.00  0.00    +0.114 C 
ENDROOT
BRANCH   1   5
ATOM      2  C   UNL     1     -30.938  -8.674  21.137  0.00  0.00    +0.120 A 
ATOM      3  C   UNL     1     -30.661  -9.698  22.062  0.00  0.00    +0.046 A 
ATOM      4  C   UNL     1     -30.054 -10.885  21.642  0.00  0.00    +0.009 A 
ATOM      5  C   UNL     1     -29.707 -11.068  20.293  0.00  0.00    -0.026 A 
ATOM      6  C   UNL     1     -29.994 -10.047  19.370  0.00  0.00    +0.009 A 
ATOM      7  C   UNL     1     -30.601  -8.861  19.793  0.00  0.00    +0.046 A 
BRANCH   2   9
ATOM      8  C   UNL     1     -32.330  -6.658  20.640  0.00  0.00    +0.277 C 
ATOM      9  O   UNL     1     -31.543  -7.465  21.511  0.00  0.00    -0.495 OA
ENDBRANCH   2   9
ENDBRANCH   1   5
BRANCH   1  10
ATOM     10  N   UNL     1     -29.751 -12.873  18.649  0.00  0.00    -0.304 N 
ATOM     11  C   UNL     1     -29.049 -13.149  17.426  0.00  0.00    +0.247 C 
ATOM     12  O   UNL     1     -27.788 -13.167  17.419  0.00  0.00    -0.270 OA
ATOM     13  H   UNL     1     -30.777 -13.067  18.695  0.00  0.00    +0.150 HD
BRANCH  11  14
ATOM     14  C   UNL     1     -29.786 -13.444  16.176  0.00  0.00    +0.075 A 
ATOM     15  C   UNL     1     -29.512 -14.631  15.475  0.00  0.00    +0.016 A 
ATOM     16  C   UNL     1     -30.196 -14.931  14.293  0.00  0.00    +0.004 A 
ATOM     17  C   UNL     1     -31.153 -14.045  13.795  0.00  0.00    +0.041 A 
ATOM     18  C   UNL     1     -31.423 -12.853  14.472  0.00  0.00    +0.159 A 
ATOM     19  F   UNL     1     -32.338 -11.986  13.972  0.00  0.00    -0.202 F 
ATOM     20  C   UNL     1     -30.741 -12.546  15.657  0.00  0.00    +0.170 A 
ATOM     21  F   UNL     1     -30.982 -11.355  16.259  0.00  0.00    -0.202 F 
ENDBRANCH  11  14
ENDBRANCH   1  10
BRANCH   1  22
ATOM     22  C   UNL     1     -29.083 -13.389  20.983  0.00  0.00    +0.147 C 
BRANCH  22  23
ATOM     23  C   UNL     1     -27.885 -14.286  20.932  0.00  0.00    +0.307 C 
ATOM     24  O   UNL     1     -27.608 -15.026  21.914  0.00  0.00    -0.251 OA
BRANCH  23  25
ATOM     25  O   UNL     1     -27.057 -14.277  19.813  0.00  0.00    -0.481 OA
ATOM     26  H   UNL     1     -26.110 -13.925  19.870  0.00  0.00    +0.295 HD
ENDBRANCH  23  25
ENDBRANCH  22  23
ENDBRANCH   1  22
TORSDOF 7
ENDMDL
MODEL 7
REMARK VINA RESULT:    -4.286      2.827      4.844
REMARK INTER + INTRA:          -7.517
REMARK INTER:                  -5.994
REMARK INTRA:                  -1.523
REMARK UNBOUND:                -1.603
REMARK  Name = 
REMARK  8 active torsions:
REMARK  status: ('A' for Active; 'I' for Inactive)
REMARK    1  A    between atoms: C_1  and  O_2
REMARK    2  A    between atoms: O_2  and  C_3
REMARK    3  A    between atoms: C_6  and  C_9
REMARK    4  A    between atoms: C_9  and  C_10
REMARK    5  A    between atoms: C_9  and  N_14
REMARK    6  A    between atoms: C_10  and  C_11
REMARK    7  A    between atoms: C_11  and  O_13
REMARK    8  A    between atoms: C_15  and  C_17
REMARK                            x       y       z     vdW  Elec       q    Type
REMARK                         _______ _______ _______ _____ _____    ______ ____
ROOT
ATOM      1  C   UNL     1     -30.165 -11.284  17.848  0.00  0.00    +0.114 C 
ENDROOT
BRANCH   1   5
ATOM      2  C   UNL     1     -33.271 -10.205  20.673  0.00  0.00    +0.120 A 
ATOM      3  C   UNL     1     -32.959 -11.557  20.438  0.00  0.00    +0.046 A 
ATOM      4  C   UNL     1     -31.956 -11.902  19.528  0.00  0.00    +0.009 A 
ATOM      5  C   UNL     1     -31.242 -10.905  18.842  0.00  0.00    -0.026 A 
ATOM      6  C   UNL     1     -31.563  -9.556  19.072  0.00  0.00    +0.009 A 
ATOM      7  C   UNL     1     -32.567  -9.212  19.983  0.00  0.00    +0.046 A 
BRANCH   2   9
ATOM      8  C   UNL     1     -34.534  -8.455  21.935  0.00  0.00    +0.277 C 
ATOM      9  O   UNL     1     -34.267  -9.807  21.577  0.00  0.00    -0.495 OA
ENDBRANCH   2   9
ENDBRANCH   1   5
BRANCH   1  10
ATOM     10  N   UNL     1     -30.772 -11.887  16.656  0.00  0.00    -0.304 N 
ATOM     11  C   UNL     1     -31.268 -11.088  15.571  0.00  0.00    +0.247 C 
ATOM     12  O   UNL     1     -30.990  -9.859  15.521  0.00  0.00    -0.270 OA
ATOM     13  H   UNL     1     -30.827 -12.928  16.580  0.00  0.00    +0.150 HD
BRANCH  11  14
ATOM     14  C   UNL     1     -32.079 -11.692  14.490  0.00  0.00    +0.075 A 
ATOM     15  C   UNL     1     -33.381 -11.218  14.252  0.00  0.00    +0.016 A 
ATOM     16  C   UNL     1     -34.163 -11.774  13.235  0.00  0.00    +0.004 A 
ATOM     17  C   UNL     1     -33.658 -12.814  12.452  0.00  0.00    +0.041 A 
ATOM     18  C   UNL     1     -32.373 -13.306  12.689  0.00  0.00    +0.159 A 
ATOM     19  F   UNL     1     -31.895 -14.331  11.940  0.00  0.00    -0.202 F 
ATOM     20  C   UNL     1     -31.583 -12.754  13.706  0.00  0.00    +0.170 A 
ATOM     21  F   UNL     1     -30.362 -13.294  13.951  0.00  0.00    -0.202 F 
ENDBRANCH  11  14
ENDBRANCH   1  10
BRANCH   1  22
ATOM     22  C   UNL     1     -29.156 -12.243  18.507  0.00  0.00    +0.147 C 
BRANCH  22  23
ATOM     23  C   UNL     1     -29.050 -13.528  17.745  0.00  0.00    +0.307 C 
ATOM     24  O   UNL     1     -28.239 -13.628  16.785  0.00  0.00    -0.251 OA
BRANCH  23  25
ATOM     25  O   UNL     1     -29.872 -14.602  18.074  0.00  0.00    -0.481 OA
ATOM     26  H   UNL     1     -30.036 -14.853  19.041  0.00  0.00    +0.295 HD
ENDBRANCH  23  25
ENDBRANCH  22  23
ENDBRANCH   1  22
TORSDOF 7
ENDMDL
MODEL 8
REMARK VINA RESULT:    -4.254      2.472      6.347
REMARK INTER + INTRA:          -7.473
REMARK INTER:                  -6.204
REMARK INTRA:                  -1.269
REMARK UNBOUND:                -1.603
REMARK  Name = 
REMARK  8 active torsions:
REMARK  status: ('A' for Active; 'I' for Inactive)
REMARK    1  A    between atoms: C_1  and  O_2
REMARK    2  A    between atoms: O_2  and  C_3
REMARK    3  A    between atoms: C_6  and  C_9
REMARK    4  A    between atoms: C_9  and  C_10
REMARK    5  A    between atoms: C_9  and  N_14
REMARK    6  A    between atoms: C_10  and  C_11
REMARK    7  A    between atoms: C_11  and  O_13
REMARK    8  A    between atoms: C_15  and  C_17
REMARK                            x       y       z     vdW  Elec       q    Type
REMARK                         _______ _______ _______ _____ _____    ______ ____
ROOT
ATOM      1  C   UNL     1     -31.307 -11.229  17.307  0.00  0.00    +0.114 C 
ENDROOT
BRANCH   1   5
ATOM      2  C   UNL     1     -31.384 -13.284  13.492  0.00  0.00    +0.120 A 
ATOM      3  C   UNL     1     -32.094 -12.082  13.668  0.00  0.00    +0.046 A 
ATOM      4  C   UNL     1     -32.067 -11.420  14.899  0.00  0.00    +0.009 A 
ATOM      5  C   UNL     1     -31.325 -11.942  15.972  0.00  0.00    -0.026 A 
ATOM      6  C   UNL     1     -30.625 -13.148  15.795  0.00  0.00    +0.009 A 
ATOM      7  C   UNL     1     -30.653 -13.808  14.563  0.00  0.00    +0.046 A 
BRANCH   2   9
ATOM      8  C   UNL     1     -30.499 -15.062  11.974  0.00  0.00    +0.277 C 
ATOM      9  O   UNL     1     -31.379 -13.984  12.276  0.00  0.00    -0.495 OA
ENDBRANCH   2   9
ENDBRANCH   1   5
BRANCH   1  10
ATOM     10  N   UNL     1     -30.539 -12.011  18.283  0.00  0.00    -0.304 N 
ATOM     11  C   UNL     1     -29.367 -11.483  18.923  0.00  0.00    +0.247 C 
ATOM     12  O   UNL     1     -29.101 -10.254  18.827  0.00  0.00    -0.270 OA
ATOM     13  H   UNL     1     -30.863 -12.971  18.539  0.00  0.00    +0.150 HD
BRANCH  11  14
ATOM     14  C   UNL     1     -28.478 -12.356  19.723  0.00  0.00    +0.075 A 
ATOM     15  C   UNL     1     -29.015 -13.105  20.785  0.00  0.00    +0.016 A 
ATOM     16  C   UNL     1     -28.195 -13.937  21.553  0.00  0.00    +0.004 A 
ATOM     17  C   UNL     1     -26.829 -14.021  21.276  0.00  0.00    +0.041 A 
ATOM     18  C   UNL     1     -26.278 -13.269  20.236  0.00  0.00    +0.159 A 
ATOM     19  F   UNL     1     -24.947 -13.338  19.985  0.00  0.00    -0.202 F 
ATOM     20  C   UNL     1     -27.094 -12.433  19.462  0.00  0.00    +0.170 A 
ATOM     21  F   UNL     1     -26.520 -11.670  18.498  0.00  0.00    -0.202 F 
ENDBRANCH  11  14
ENDBRANCH   1  10
BRANCH   1  22
ATOM     22  C   UNL     1     -32.748 -10.990  17.795  0.00  0.00    +0.147 C 
BRANCH  22  23
ATOM     23  C   UNL     1     -32.941 -11.495  19.192  0.00  0.00    +0.307 C 
ATOM     24  O   UNL     1     -33.282 -10.700  20.109  0.00  0.00    -0.251 OA
BRANCH  23  25
ATOM     25  O   UNL     1     -32.709 -12.835  19.486  0.00  0.00    -0.481 OA
ATOM     26  H   UNL     1     -33.438 -13.527  19.365  0.00  0.00    +0.295 HD
ENDBRANCH  23  25
ENDBRANCH  22  23
ENDBRANCH   1  22
TORSDOF 7
ENDMDL
MODEL 9
REMARK VINA RESULT:    -4.110      3.411      5.252
REMARK INTER + INTRA:          -7.274
REMARK INTER:                  -5.837
REMARK INTRA:                  -1.437
REMARK UNBOUND:                -1.603
REMARK  Name = 
REMARK  8 active torsions:
REMARK  status: ('A' for Active; 'I' for Inactive)
REMARK    1  A    between atoms: C_1  and  O_2
REMARK    2  A    between atoms: O_2  and  C_3
REMARK    3  A    between atoms: C_6  and  C_9
REMARK    4  A    between atoms: C_9  and  C_10
REMARK    5  A    between atoms: C_9  and  N_14
REMARK    6  A    between atoms: C_10  and  C_11
REMARK    7  A    between atoms: C_11  and  O_13
REMARK    8  A    between atoms: C_15  and  C_17
REMARK                            x       y       z     vdW  Elec       q    Type
REMARK                         _______ _______ _______ _____ _____    ______ ____
ROOT
ATOM      1  C   UNL     1     -29.624 -10.881  18.274  0.00  0.00    +0.114 C 
ENDROOT
BRANCH   1   5
ATOM      2  C   UNL     1     -32.579  -9.511  21.134  0.00  0.00    +0.120 A 
ATOM      3  C   UNL     1     -31.666  -8.605  20.563  0.00  0.00    +0.046 A 
ATOM      4  C   UNL     1     -30.715  -9.049  19.640  0.00  0.00    +0.009 A 
ATOM      5  C   UNL     1     -30.663 -10.402  19.265  0.00  0.00    -0.026 A 
ATOM      6  C   UNL     1     -31.571 -11.305  19.845  0.00  0.00    +0.009 A 
ATOM      7  C   UNL     1     -32.521 -10.860  20.768  0.00  0.00    +0.046 A 
BRANCH   2   9
ATOM      8  C   UNL     1     -34.578  -8.162  21.794  0.00  0.00    +0.277 C 
ATOM      9  O   UNL     1     -33.553  -9.114  22.062  0.00  0.00    -0.495 OA
ENDBRANCH   2   9
ENDBRANCH   1   5
BRANCH   1  10
ATOM     10  N   UNL     1     -30.283 -11.498  17.116  0.00  0.00    -0.304 N 
ATOM     11  C   UNL     1     -30.902 -10.709  16.088  0.00  0.00    +0.247 C 
ATOM     12  O   UNL     1     -30.697  -9.466  16.044  0.00  0.00    -0.270 OA
ATOM     13  H   UNL     1     -30.284 -12.539  17.022  0.00  0.00    +0.150 HD
BRANCH  11  14
ATOM     14  C   UNL     1     -31.754 -11.340  15.055  0.00  0.00    +0.075 A 
ATOM     15  C   UNL     1     -31.300 -12.492  14.390  0.00  0.00    +0.016 A 
ATOM     16  C   UNL     1     -32.089 -13.105  13.412  0.00  0.00    +0.004 A 
ATOM     17  C   UNL     1     -33.335 -12.568  13.081  0.00  0.00    +0.041 A 
ATOM     18  C   UNL     1     -33.791 -11.413  13.720  0.00  0.00    +0.159 A 
ATOM     19  F   UNL     1     -34.992 -10.883  13.379  0.00  0.00    -0.202 F 
ATOM     20  C   UNL     1     -33.006 -10.794  14.702  0.00  0.00    +0.170 A 
ATOM     21  F   UNL     1     -33.450  -9.640  15.262  0.00  0.00    -0.202 F 
ENDBRANCH  11  14
ENDBRANCH   1  10
BRANCH   1  22
ATOM     22  C   UNL     1     -28.661 -11.869  18.959  0.00  0.00    +0.147 C 
BRANCH  22  23
ATOM     23  C   UNL     1     -28.693 -13.210  18.293  0.00  0.00    +0.307 C 
ATOM     24  O   UNL     1     -28.232 -13.349  17.129  0.00  0.00    -0.251 OA
BRANCH  23  25
ATOM     25  O   UNL     1     -29.264 -14.297  18.948  0.00  0.00    -0.481 OA
ATOM     26  H   UNL     1     -29.362 -14.304  19.956  0.00  0.00    +0.295 HD
ENDBRANCH  23  25
ENDBRANCH  22  23
ENDBRANCH   1  22
TORSDOF 7
ENDMDL
