MODEL 1
REMARK VINA RESULT:    -5.072      0.000      0.000
REMARK INTER + INTRA:          -5.808
REMARK INTER:                  -5.665
REMARK INTRA:                  -0.143
REMARK UNBOUND:                -0.143
REMARK  Name = 
REMARK  3 active torsions:
REMARK  status: ('A' for Active; 'I' for Inactive)
REMARK    1  A    between atoms: C_1  and  C_2
REMARK    2  A    between atoms: C_6  and  N_8
REMARK    3  A    between atoms: C_11  and  C_14
REMARK                            x       y       z     vdW  Elec       q    Type
REMARK                         _______ _______ _______ _____ _____    ______ ____
ROOT
ATOM      1  N   UNL     1     -31.081 -11.605  16.052  0.00  0.00    -0.294 N 
ATOM      2  C   UNL     1     -30.902 -11.960  17.429  0.00  0.00    +0.163 A 
ATOM      3  N   UNL     1     -29.712 -12.353  17.929  0.00  0.00    -0.225 NA
ATOM      4  C   UNL     1     -29.794 -12.714  19.240  0.00  0.00    +0.080 A 
ATOM      5  C   UNL     1     -31.082 -12.629  19.782  0.00  0.00    +0.076 A 
ATOM      6  S   UNL     1     -32.124 -12.086  18.579  0.00  0.00    -0.060 S 
ATOM      7  H   UNL     1     -30.340 -11.901  15.378  0.00  0.00    +0.154 HD
ENDROOT
BRANCH   4   8
ATOM      8  C   UNL     1     -28.597 -13.177  19.991  0.00  0.00    +0.004 A 
ATOM      9  C   UNL     1     -28.716 -13.931  21.177  0.00  0.00    +0.013 A 
ATOM     10  C   UNL     1     -27.575 -14.353  21.866  0.00  0.00    +0.042 A 
ATOM     11  C   UNL     1     -26.304 -14.028  21.388  0.00  0.00    +0.158 A 
ATOM     12  F   UNL     1     -25.201 -14.440  22.062  0.00  0.00    -0.202 F 
ATOM     13  C   UNL     1     -26.171 -13.277  20.217  0.00  0.00    +0.159 A 
ATOM     14  F   UNL     1     -24.938 -12.958  19.752  0.00  0.00    -0.202 F 
ATOM     15  C   UNL     1     -27.309 -12.853  19.524  0.00  0.00    +0.051 A 
ENDBRANCH   4   8
BRANCH   1  21
ATOM     16  C   UNL     1     -34.704 -11.472  12.653  0.00  0.00    +0.044 C 
ATOM     17  C   UNL     1     -34.039 -10.895  13.867  0.00  0.00    -0.049 A 
ATOM     18  C   UNL     1     -34.509  -9.699  14.429  0.00  0.00    +0.003 A 
ATOM     19  C   UNL     1     -33.858  -9.137  15.530  0.00  0.00    +0.002 A 
ATOM     20  C   UNL     1     -32.734  -9.762  16.077  0.00  0.00    +0.023 A 
ATOM     21  C   UNL     1     -32.257 -10.965  15.530  0.00  0.00    +0.033 A 
ATOM     22  C   UNL     1     -32.898 -11.510  14.408  0.00  0.00    +0.026 A 
ENDBRANCH   1  21
TORSDOF 2
ENDMDL
MODEL 2
REMARK VINA RESULT:    -4.079      2.335      3.326
REMARK INTER + INTRA:          -4.699
REMARK INTER:                  -4.375
REMARK INTRA:                  -0.324
REMARK UNBOUND:                -0.143
REMARK  Name = 
REMARK  3 active torsions:
REMARK  status: ('A' for Active; 'I' for Inactive)
REMARK    1  A    between atoms: C_1  and  C_2
REMARK    2  A    between atoms: C_6  and  N_8
REMARK    3  A    between atoms: C_11  and  C_14
REMARK                            x       y       z     vdW  Elec       q    Type
REMARK                         _______ _______ _______ _____ _____    ______ ____
ROOT
ATOM      1  N   UNL     1     -31.130  -9.280  18.703  0.00  0.00    -0.294 N 
ATOM      2  C   UNL     1     -30.925 -10.582  19.266  0.00  0.00    +0.163 A 
ATOM      3  N   UNL     1     -29.707 -11.028  19.642  0.00  0.00    -0.225 NA
ATOM      4  C   UNL     1     -29.739 -12.319  20.077  0.00  0.00    +0.080 A 
ATOM      5  C   UNL     1     -31.005 -12.914  20.022  0.00  0.00    +0.076 A 
ATOM      6  S   UNL     1     -32.093 -11.785  19.415  0.00  0.00    -0.060 S 
ATOM      7  H   UNL     1     -30.290  -8.773  18.345  0.00  0.00    +0.154 HD
ENDROOT
BRANCH   4   8
ATOM      8  C   UNL     1     -28.507 -13.009  20.542  0.00  0.00    +0.004 A 
ATOM      9  C   UNL     1     -28.526 -13.892  21.641  0.00  0.00    +0.013 A 
ATOM     10  C   UNL     1     -27.353 -14.527  22.061  0.00  0.00    +0.042 A 
ATOM     11  C   UNL     1     -26.149 -14.290  21.396  0.00  0.00    +0.158 A 
ATOM     12  F   UNL     1     -25.014 -14.908  21.809  0.00  0.00    -0.202 F 
ATOM     13  C   UNL     1     -26.113 -13.412  20.308  0.00  0.00    +0.159 A 
ATOM     14  F   UNL     1     -24.944 -13.179  19.663  0.00  0.00    -0.202 F 
ATOM     15  C   UNL     1     -27.283 -12.775  19.885  0.00  0.00    +0.051 A 
ENDBRANCH   4   8
BRANCH   1  21
ATOM     16  C   UNL     1     -34.925  -6.649  20.538  0.00  0.00    +0.044 C 
ATOM     17  C   UNL     1     -34.285  -7.387  19.400  0.00  0.00    -0.049 A 
ATOM     18  C   UNL     1     -34.978  -7.563  18.193  0.00  0.00    +0.003 A 
ATOM     19  C   UNL     1     -34.400  -8.293  17.152  0.00  0.00    +0.002 A 
ATOM     20  C   UNL     1     -33.129  -8.854  17.307  0.00  0.00    +0.023 A 
ATOM     21  C   UNL     1     -32.420  -8.680  18.508  0.00  0.00    +0.033 A 
ATOM     22  C   UNL     1     -33.017  -7.969  19.559  0.00  0.00    +0.026 A 
ENDBRANCH   1  21
TORSDOF 2
ENDMDL
MODEL 3
REMARK VINA RESULT:    -4.045      4.932      6.136
REMARK INTER + INTRA:          -4.661
REMARK INTER:                  -4.380
REMARK INTRA:                  -0.281
REMARK UNBOUND:                -0.143
REMARK  Name = 
REMARK  3 active torsions:
REMARK  status: ('A' for Active; 'I' for Inactive)
REMARK    1  A    between atoms: C_1  and  C_2
REMARK    2  A    between atoms: C_6  and  N_8
REMARK    3  A    between atoms: C_11  and  C_14
REMARK                            x       y       z     vdW  Elec       q    Type
REMARK                         _______ _______ _______ _____ _____    ______ ____
ROOT
ATOM      1  N   UNL     1     -31.921 -10.625  14.648  0.00  0.00    -0.294 N 
ATOM      2  C   UNL     1     -32.452 -10.436  15.965  0.00  0.00    +0.163 A 
ATOM      3  N   UNL     1     -32.208  -9.327  16.695  0.00  0.00    -0.225 NA
ATOM      4  C   UNL     1     -32.749  -9.399  17.944  0.00  0.00    +0.080 A 
ATOM      5  C   UNL     1     -33.415 -10.600  18.215  0.00  0.00    +0.076 A 
ATOM      6  S   UNL     1     -33.314 -11.578  16.851  0.00  0.00    -0.060 S 
ATOM      7  H   UNL     1     -31.129 -10.010  14.356  0.00  0.00    +0.154 HD
ENDROOT
BRANCH   4   8
ATOM      8  C   UNL     1     -32.603  -8.282  18.915  0.00  0.00    +0.004 A 
ATOM      9  C   UNL     1     -33.617  -7.317  19.087  0.00  0.00    +0.013 A 
ATOM     10  C   UNL     1     -33.455  -6.275  20.005  0.00  0.00    +0.042 A 
ATOM     11  C   UNL     1     -32.285  -6.178  20.760  0.00  0.00    +0.158 A 
ATOM     12  F   UNL     1     -32.134  -5.164  21.648  0.00  0.00    -0.202 F 
ATOM     13  C   UNL     1     -31.269  -7.124  20.595  0.00  0.00    +0.159 A 
ATOM     14  F   UNL     1     -30.130  -7.030  21.325  0.00  0.00    -0.202 F 
ATOM     15  C   UNL     1     -31.426  -8.167  19.679  0.00  0.00    +0.051 A 
ENDBRANCH   4   8
BRANCH   1  21
ATOM     16  C   UNL     1     -30.810 -14.739  12.093  0.00  0.00    +0.044 C 
ATOM     17  C   UNL     1     -31.800 -13.688  12.498  0.00  0.00    -0.049 A 
ATOM     18  C   UNL     1     -33.086 -13.676  11.938  0.00  0.00    +0.003 A 
ATOM     19  C   UNL     1     -33.991 -12.667  12.278  0.00  0.00    +0.002 A 
ATOM     20  C   UNL     1     -33.620 -11.664  13.177  0.00  0.00    +0.023 A 
ATOM     21  C   UNL     1     -32.337 -11.667  13.752  0.00  0.00    +0.033 A 
ATOM     22  C   UNL     1     -31.424 -12.667  13.385  0.00  0.00    +0.026 A 
ENDBRANCH   1  21
TORSDOF 2
ENDMDL
MODEL 4
REMARK VINA RESULT:    -3.819      5.589      6.765
REMARK INTER + INTRA:          -4.409
REMARK INTER:                  -4.184
REMARK INTRA:                  -0.226
REMARK UNBOUND:                -0.143
REMARK  Name = 
REMARK  3 active torsions:
REMARK  status: ('A' for Active; 'I' for Inactive)
REMARK    1  A    between atoms: C_1  and  C_2
REMARK    2  A    between atoms: C_6  and  N_8
REMARK    3  A    between atoms: C_11  and  C_14
REMARK                            x       y       z     vdW  Elec       q    Type
REMARK                         _______ _______ _______ _____ _____    ______ ____
ROOT
ATOM      1  N   UNL     1     -32.660 -10.650  14.690  0.00  0.00    -0.294 N 
ATOM      2  C   UNL     1     -32.979 -10.778  16.081  0.00  0.00    +0.163 A 
ATOM      3  N   UNL     1     -33.256  -9.714  16.864  0.00  0.00    -0.225 NA
ATOM      4  C   UNL     1     -33.454 -10.066  18.166  0.00  0.00    +0.080 A 
ATOM      5  C   UNL     1     -33.306 -11.434  18.422  0.00  0.00    +0.076 A 
ATOM      6  S   UNL     1     -32.922 -12.202  16.976  0.00  0.00    -0.060 S 
ATOM      7  H   UNL     1     -32.389  -9.702  14.344  0.00  0.00    +0.154 HD
ENDROOT
BRANCH   4   8
ATOM      8  C   UNL     1     -33.776  -9.049  19.202  0.00  0.00    +0.004 A 
ATOM      9  C   UNL     1     -33.979  -9.407  20.550  0.00  0.00    +0.013 A 
ATOM     10  C   UNL     1     -34.283  -8.433  21.505  0.00  0.00    +0.042 A 
ATOM     11  C   UNL     1     -34.392  -7.092  21.131  0.00  0.00    +0.158 A 
ATOM     12  F   UNL     1     -34.689  -6.151  22.062  0.00  0.00    -0.202 F 
ATOM     13  C   UNL     1     -34.199  -6.722  19.797  0.00  0.00    +0.159 A 
ATOM     14  F   UNL     1     -34.307  -5.421  19.431  0.00  0.00    -0.202 F 
ATOM     15  C   UNL     1     -33.895  -7.693  18.839  0.00  0.00    +0.051 A 
ENDBRANCH   4   8
BRANCH   1  21
ATOM     16  C   UNL     1     -30.075 -14.443  12.787  0.00  0.00    +0.044 C 
ATOM     17  C   UNL     1     -31.326 -13.618  12.837  0.00  0.00    -0.049 A 
ATOM     18  C   UNL     1     -32.374 -13.868  11.938  0.00  0.00    +0.003 A 
ATOM     19  C   UNL     1     -33.518 -13.067  11.953  0.00  0.00    +0.002 A 
ATOM     20  C   UNL     1     -33.625 -12.011  12.862  0.00  0.00    +0.023 A 
ATOM     21  C   UNL     1     -32.587 -11.753  13.774  0.00  0.00    +0.033 A 
ATOM     22  C   UNL     1     -31.430 -12.544  13.736  0.00  0.00    +0.026 A 
ENDBRANCH   1  21
TORSDOF 2
ENDMDL
MODEL 5
REMARK VINA RESULT:    -3.663      3.874      8.583
REMARK INTER + INTRA:          -4.235
REMARK INTER:                  -4.386
REMARK INTRA:                   0.151
REMARK UNBOUND:                -0.143
REMARK  Name = 
REMARK  3 active torsions:
REMARK  status: ('A' for Active; 'I' for Inactive)
REMARK    1  A    between atoms: C_1  and  C_2
REMARK    2  A    between atoms: C_6  and  N_8
REMARK    3  A    between atoms: C_11  and  C_14
REMARK                            x       y       z     vdW  Elec       q    Type
REMARK                         _______ _______ _______ _____ _____    ______ ____
ROOT
ATOM      1  N   UNL     1     -29.143 -13.232  18.208  0.00  0.00    -0.294 N 
ATOM      2  C   UNL     1     -30.161 -12.296  17.834  0.00  0.00    +0.163 A 
ATOM      3  N   UNL     1     -30.870 -12.411  16.691  0.00  0.00    -0.225 NA
ATOM      4  C   UNL     1     -31.728 -11.368  16.506  0.00  0.00    +0.080 A 
ATOM      5  C   UNL     1     -31.679 -10.395  17.512  0.00  0.00    +0.076 A 
ATOM      6  S   UNL     1     -30.533 -10.870  18.648  0.00  0.00    -0.060 S 
ATOM      7  H   UNL     1     -28.773 -13.863  17.463  0.00  0.00    +0.154 HD
ENDROOT
BRANCH   4   8
ATOM      8  C   UNL     1     -32.609 -11.295  15.310  0.00  0.00    +0.004 A 
ATOM      9  C   UNL     1     -33.579 -10.281  15.169  0.00  0.00    +0.013 A 
ATOM     10  C   UNL     1     -34.397 -10.235  14.037  0.00  0.00    +0.042 A 
ATOM     11  C   UNL     1     -34.264 -11.197  13.034  0.00  0.00    +0.158 A 
ATOM     12  F   UNL     1     -35.062 -11.147  11.938  0.00  0.00    -0.202 F 
ATOM     13  C   UNL     1     -33.311 -12.211  13.163  0.00  0.00    +0.159 A 
ATOM     14  F   UNL     1     -33.182 -13.148  12.191  0.00  0.00    -0.202 F 
ATOM     15  C   UNL     1     -32.491 -12.262  14.293  0.00  0.00    +0.051 A 
ENDBRANCH   4   8
BRANCH   1  21
ATOM     16  C   UNL     1     -25.161 -14.241  21.004  0.00  0.00    +0.044 C 
ATOM     17  C   UNL     1     -26.581 -13.774  20.885  0.00  0.00    -0.049 A 
ATOM     18  C   UNL     1     -27.326 -13.478  22.036  0.00  0.00    +0.003 A 
ATOM     19  C   UNL     1     -28.664 -13.090  21.926  0.00  0.00    +0.002 A 
ATOM     20  C   UNL     1     -29.268 -12.997  20.670  0.00  0.00    +0.023 A 
ATOM     21  C   UNL     1     -28.532 -13.283  19.507  0.00  0.00    +0.033 A 
ATOM     22  C   UNL     1     -27.197 -13.698  19.626  0.00  0.00    +0.026 A 
ENDBRANCH   1  21
TORSDOF 2
ENDMDL
MODEL 6
REMARK VINA RESULT:    -3.419      5.333      6.880
REMARK INTER + INTRA:          -3.962
REMARK INTER:                  -4.277
REMARK INTRA:                   0.315
REMARK UNBOUND:                -0.143
REMARK  Name = 
REMARK  3 active torsions:
REMARK  status: ('A' for Active; 'I' for Inactive)
REMARK    1  A    between atoms: C_1  and  C_2
REMARK    2  A    between atoms: C_6  and  N_8
REMARK    3  A    between atoms: C_11  and  C_14
REMARK                            x       y       z     vdW  Elec       q    Type
REMARK                         _______ _______ _______ _____ _____    ______ ____
ROOT
ATOM      1  N   UNL     1     -30.905 -12.302  16.676  0.00  0.00    -0.294 N 
ATOM      2  C   UNL     1     -32.144 -11.650  16.982  0.00  0.00    +0.163 A 
ATOM      3  N   UNL     1     -32.263 -10.750  17.980  0.00  0.00    -0.225 NA
ATOM      4  C   UNL     1     -33.547 -10.319  18.139  0.00  0.00    +0.080 A 
ATOM      5  C   UNL     1     -34.465 -10.910  17.262  0.00  0.00    +0.076 A 
ATOM      6  S   UNL     1     -33.633 -11.989  16.276  0.00  0.00    -0.060 S 
ATOM      7  H   UNL     1     -30.151 -12.268  17.399  0.00  0.00    +0.154 HD
ENDROOT
BRANCH   4   8
ATOM      8  C   UNL     1     -33.904  -9.321  19.181  0.00  0.00    +0.004 A 
ATOM      9  C   UNL     1     -33.901  -9.653  20.552  0.00  0.00    +0.013 A 
ATOM     10  C   UNL     1     -34.243  -8.697  21.513  0.00  0.00    +0.042 A 
ATOM     11  C   UNL     1     -34.595  -7.403  21.124  0.00  0.00    +0.158 A 
ATOM     12  F   UNL     1     -34.927  -6.481  22.062  0.00  0.00    -0.202 F 
ATOM     13  C   UNL     1     -34.608  -7.062  19.769  0.00  0.00    +0.159 A 
ATOM     14  F   UNL     1     -34.952  -5.806  19.388  0.00  0.00    -0.202 F 
ATOM     15  C   UNL     1     -34.267  -8.014  18.804  0.00  0.00    +0.051 A 
ENDBRANCH   4   8
BRANCH   1  21
ATOM     16  C   UNL     1     -32.042 -13.292  11.941  0.00  0.00    +0.044 C 
ATOM     17  C   UNL     1     -31.225 -13.570  13.167  0.00  0.00    -0.049 A 
ATOM     18  C   UNL     1     -30.312 -14.636  13.181  0.00  0.00    +0.003 A 
ATOM     19  C   UNL     1     -29.588 -14.925  14.340  0.00  0.00    +0.002 A 
ATOM     20  C   UNL     1     -29.769 -14.156  15.492  0.00  0.00    +0.023 A 
ATOM     21  C   UNL     1     -30.674 -13.081  15.491  0.00  0.00    +0.033 A 
ATOM     22  C   UNL     1     -31.418 -12.813  14.333  0.00  0.00    +0.026 A 
ENDBRANCH   1  21
TORSDOF 2
ENDMDL
MODEL 7
REMARK VINA RESULT:    -3.148      4.751      6.222
REMARK INTER + INTRA:          -3.660
REMARK INTER:                  -3.642
REMARK INTRA:                  -0.018
REMARK UNBOUND:                -0.143
REMARK  Name = 
REMARK  3 active torsions:
REMARK  status: ('A' for Active; 'I' for Inactive)
REMARK    1  A    between atoms: C_1  and  C_2
REMARK    2  A    between atoms: C_6  and  N_8
REMARK    3  A    between atoms: C_11  and  C_14
REMARK                            x       y       z     vdW  Elec       q    Type
REMARK                         _______ _______ _______ _____ _____    ______ ____
ROOT
ATOM      1  N   UNL     1     -30.204 -13.339  15.836  0.00  0.00    -0.294 N 
ATOM      2  C   UNL     1     -30.680 -12.011  16.087  0.00  0.00    +0.163 A 
ATOM      3  N   UNL     1     -30.643 -11.445  17.312  0.00  0.00    -0.225 NA
ATOM      4  C   UNL     1     -31.218 -10.210  17.330  0.00  0.00    +0.080 A 
ATOM      5  C   UNL     1     -31.743  -9.800  16.099  0.00  0.00    +0.076 A 
ATOM      6  S   UNL     1     -31.470 -11.022  14.977  0.00  0.00    -0.060 S 
ATOM      7  H   UNL     1     -30.065 -13.964  16.661  0.00  0.00    +0.154 HD
ENDROOT
BRANCH   4   8
ATOM      8  C   UNL     1     -31.283  -9.405  18.580  0.00  0.00    +0.004 A 
ATOM      9  C   UNL     1     -30.496  -9.726  19.705  0.00  0.00    +0.013 A 
ATOM     10  C   UNL     1     -30.577  -8.955  20.869  0.00  0.00    +0.042 A 
ATOM     11  C   UNL     1     -31.441  -7.860  20.928  0.00  0.00    +0.158 A 
ATOM     12  F   UNL     1     -31.515  -7.117  22.061  0.00  0.00    -0.202 F 
ATOM     13  C   UNL     1     -32.231  -7.534  19.823  0.00  0.00    +0.159 A 
ATOM     14  F   UNL     1     -33.072  -6.472  19.880  0.00  0.00    -0.202 F 
ATOM     15  C   UNL     1     -32.154  -8.301  18.657  0.00  0.00    +0.051 A 
ENDBRANCH   4   8
BRANCH   1  21
ATOM     16  C   UNL     1     -27.099 -15.046  12.353  0.00  0.00    +0.044 C 
ATOM     17  C   UNL     1     -28.492 -14.733  12.812  0.00  0.00    -0.049 A 
ATOM     18  C   UNL     1     -29.577 -14.895  11.938  0.00  0.00    +0.003 A 
ATOM     19  C   UNL     1     -30.868 -14.557  12.351  0.00  0.00    +0.002 A 
ATOM     20  C   UNL     1     -31.086 -14.052  13.636  0.00  0.00    +0.023 A 
ATOM     21  C   UNL     1     -30.009 -13.891  14.525  0.00  0.00    +0.033 A 
ATOM     22  C   UNL     1     -28.712 -14.208  14.095  0.00  0.00    +0.026 A 
ENDBRANCH   1  21
TORSDOF 2
ENDMDL
