MODEL 1
REMARK VINA RESULT:    -4.050      0.000      0.000
REMARK INTER + INTRA:          -6.459
REMARK INTER:                  -5.233
REMARK INTRA:                  -1.225
REMARK UNBOUND:                -1.225
REMARK  Name = 
REMARK  5 active torsions:
REMARK  status: ('A' for Active; 'I' for Inactive)
REMARK    1  A    between atoms: C_7  and  C_8
REMARK    2  A    between atoms: C_8  and  N_9
REMARK    3  A    between atoms: N_9  and  C_10
REMARK    4  A    between atoms: N_9  and  C_17
REMARK    5  A    between atoms: C_10  and  C_11
REMARK                            x       y       z     vdW  Elec       q    Type
REMARK                         _______ _______ _______ _____ _____    ______ ____
ROOT
ATOM      1  N   UNL     1     -30.746 -13.125  17.212  0.00  0.00    -0.289 NA
ENDROOT
BRANCH   1   2
ATOM      2  C   UNL     1     -29.759 -13.336  18.288  0.00  0.00    +0.057 C 
ATOM      3  C   UNL     1     -29.505 -12.110  19.153  0.00  0.00    +0.020 C 
ATOM      4  C   UNL     1     -28.487 -12.521  18.107  0.00  0.00    +0.020 C 
ENDBRANCH   1   2
BRANCH   1   5
ATOM      5  C   UNL     1     -31.008 -14.383  16.483  0.00  0.00    +0.123 C 
BRANCH   5  12
ATOM      6  F   UNL     1     -32.224 -13.493  14.022  0.00  0.00    -0.205 F 
ATOM      7  C   UNL     1     -30.948 -13.951  13.981  0.00  0.00    +0.128 A 
ATOM      8  C   UNL     1     -30.280 -13.998  12.751  0.00  0.00    +0.038 A 
ATOM      9  C   UNL     1     -28.971 -14.480  12.681  0.00  0.00    +0.003 A 
ATOM     10  C   UNL     1     -28.325 -14.921  13.837  0.00  0.00    +0.000 A 
ATOM     11  C   UNL     1     -28.984 -14.878  15.068  0.00  0.00    +0.008 A 
ATOM     12  C   UNL     1     -30.299 -14.388  15.152  0.00  0.00    +0.002 A 
ENDBRANCH   5  12
ENDBRANCH   1   5
BRANCH   1  13
ATOM     13  C   UNL     1     -31.997 -12.528  17.738  0.00  0.00    +0.144 C 
BRANCH  13  14
ATOM     14  C   UNL     1     -32.780 -11.754  16.704  0.00  0.00    +0.104 A 
ATOM     15  N   UNL     1     -34.062 -12.102  16.371  0.00  0.00    -0.143 NA
ATOM     16  N   UNL     1     -34.628 -11.336  15.443  0.00  0.00    -0.109 NA
ATOM     17  S   UNL     1     -33.525 -10.177  15.003  0.00  0.00    +0.049 S 
ATOM     18  C   UNL     1     -32.285 -10.649  16.010  0.00  0.00    +0.122 A 
ATOM     19 CL   UNL     1     -30.723  -9.864  16.161  0.00  0.00    -0.072 Cl
ENDBRANCH  13  14
ENDBRANCH   1  13
TORSDOF 5
ENDMDL
MODEL 2
REMARK VINA RESULT:    -3.902      3.387      4.995
REMARK INTER + INTRA:          -6.268
REMARK INTER:                  -5.103
REMARK INTRA:                  -1.165
REMARK UNBOUND:                -1.225
REMARK  Name = 
REMARK  5 active torsions:
REMARK  status: ('A' for Active; 'I' for Inactive)
REMARK    1  A    between atoms: C_7  and  C_8
REMARK    2  A    between atoms: C_8  and  N_9
REMARK    3  A    between atoms: N_9  and  C_10
REMARK    4  A    between atoms: N_9  and  C_17
REMARK    5  A    between atoms: C_10  and  C_11
REMARK                            x       y       z     vdW  Elec       q    Type
REMARK                         _______ _______ _______ _____ _____    ______ ____
ROOT
ATOM      1  N   UNL     1     -30.754 -10.785  18.158  0.00  0.00    -0.289 NA
ENDROOT
BRANCH   1   2
ATOM      2  C   UNL     1     -32.082 -10.299  18.575  0.00  0.00    +0.057 C 
ATOM      3  C   UNL     1     -32.372 -10.468  20.059  0.00  0.00    +0.020 C 
ATOM      4  C   UNL     1     -33.007 -11.409  19.054  0.00  0.00    +0.020 C 
ENDBRANCH   1   2
BRANCH   1   5
ATOM      5  C   UNL     1     -30.449 -10.362  16.775  0.00  0.00    +0.123 C 
BRANCH   5  12
ATOM      6  F   UNL     1     -29.555 -13.101  16.612  0.00  0.00    -0.205 F 
ATOM      7  C   UNL     1     -30.506 -12.681  15.740  0.00  0.00    +0.128 A 
ATOM      8  C   UNL     1     -30.998 -13.577  14.784  0.00  0.00    +0.038 A 
ATOM      9  C   UNL     1     -31.965 -13.163  13.865  0.00  0.00    +0.003 A 
ATOM     10  C   UNL     1     -32.442 -11.851  13.895  0.00  0.00    +0.000 A 
ATOM     11  C   UNL     1     -31.956 -10.950  14.846  0.00  0.00    +0.008 A 
ATOM     12  C   UNL     1     -30.988 -11.358  15.780  0.00  0.00    +0.002 A 
ENDBRANCH   5  12
ENDBRANCH   1   5
BRANCH   1  13
ATOM     13  C   UNL     1     -29.700 -10.352  19.106  0.00  0.00    +0.144 C 
BRANCH  13  14
ATOM     14  C   UNL     1     -28.590 -11.362  19.281  0.00  0.00    +0.104 A 
ATOM     15  N   UNL     1     -27.333 -11.134  18.787  0.00  0.00    -0.143 NA
ATOM     16  N   UNL     1     -26.458 -12.111  19.011  0.00  0.00    -0.109 NA
ATOM     17  S   UNL     1     -27.242 -13.310  19.848  0.00  0.00    +0.049 S 
ATOM     18  C   UNL     1     -28.738 -12.584  19.938  0.00  0.00    +0.122 A 
ATOM     19 CL   UNL     1     -30.157 -13.240  20.737  0.00  0.00    -0.072 Cl
ENDBRANCH  13  14
ENDBRANCH   1  13
TORSDOF 5
ENDMDL
MODEL 3
REMARK VINA RESULT:    -3.710      4.116      6.136
REMARK INTER + INTRA:          -6.020
REMARK INTER:                  -5.084
REMARK INTRA:                  -0.936
REMARK UNBOUND:                -1.225
REMARK  Name = 
REMARK  5 active torsions:
REMARK  status: ('A' for Active; 'I' for Inactive)
REMARK    1  A    between atoms: C_7  and  C_8
REMARK    2  A    between atoms: C_8  and  N_9
REMARK    3  A    between atoms: N_9  and  C_10
REMARK    4  A    between atoms: N_9  and  C_17
REMARK    5  A    between atoms: C_10  and  C_11
REMARK                            x       y       z     vdW  Elec       q    Type
REMARK                         _______ _______ _______ _____ _____    ______ ____
ROOT
ATOM      1  N   UNL     1     -29.051 -12.172  18.396  0.00  0.00    -0.289 NA
ENDROOT
BRANCH   1   2
ATOM      2  C   UNL     1     -29.144 -13.105  17.257  0.00  0.00    +0.057 C 
ATOM      3  C   UNL     1     -30.445 -13.010  16.475  0.00  0.00    +0.020 C 
ATOM      4  C   UNL     1     -30.222 -14.165  17.432  0.00  0.00    +0.020 C 
ENDBRANCH   1   2
BRANCH   1   5
ATOM      5  C   UNL     1     -27.644 -11.972  18.800  0.00  0.00    +0.123 C 
BRANCH   5  12
ATOM      6  F   UNL     1     -24.938 -12.738  19.444  0.00  0.00    -0.205 F 
ATOM      7  C   UNL     1     -25.945 -13.224  20.212  0.00  0.00    +0.128 A 
ATOM      8  C   UNL     1     -25.640 -14.091  21.267  0.00  0.00    +0.038 A 
ATOM      9  C   UNL     1     -26.661 -14.617  22.062  0.00  0.00    +0.003 A 
ATOM     10  C   UNL     1     -27.991 -14.281  21.805  0.00  0.00    +0.000 A 
ATOM     11  C   UNL     1     -28.305 -13.415  20.754  0.00  0.00    +0.008 A 
ATOM     12  C   UNL     1     -27.284 -12.875  19.952  0.00  0.00    +0.002 A 
ENDBRANCH   5  12
ENDBRANCH   1   5
BRANCH   1  13
ATOM     13  C   UNL     1     -29.721 -10.885  18.093  0.00  0.00    +0.144 C 
BRANCH  13  14
ATOM     14  C   UNL     1     -30.274 -10.188  19.314  0.00  0.00    +0.104 A 
ATOM     15  N   UNL     1     -29.924  -8.900  19.621  0.00  0.00    -0.143 NA
ATOM     16  N   UNL     1     -30.483  -8.416  20.726  0.00  0.00    -0.109 NA
ATOM     17  S   UNL     1     -31.450  -9.603  21.365  0.00  0.00    +0.049 S 
ATOM     18  C   UNL     1     -31.162 -10.774  20.217  0.00  0.00    +0.122 A 
ATOM     19 CL   UNL     1     -31.880 -12.375  20.173  0.00  0.00    -0.072 Cl
ENDBRANCH  13  14
ENDBRANCH   1  13
TORSDOF 5
ENDMDL
MODEL 4
REMARK VINA RESULT:    -3.686      3.304      4.840
REMARK INTER + INTRA:          -5.989
REMARK INTER:                  -4.867
REMARK INTRA:                  -1.122
REMARK UNBOUND:                -1.225
REMARK  Name = 
REMARK  5 active torsions:
REMARK  status: ('A' for Active; 'I' for Inactive)
REMARK    1  A    between atoms: C_7  and  C_8
REMARK    2  A    between atoms: C_8  and  N_9
REMARK    3  A    between atoms: N_9  and  C_10
REMARK    4  A    between atoms: N_9  and  C_17
REMARK    5  A    between atoms: C_10  and  C_11
REMARK                            x       y       z     vdW  Elec       q    Type
REMARK                         _______ _______ _______ _____ _____    ______ ____
ROOT
ATOM      1  N   UNL     1     -31.176 -10.148  17.959  0.00  0.00    -0.289 NA
ENDROOT
BRANCH   1   2
ATOM      2  C   UNL     1     -32.376  -9.404  18.389  0.00  0.00    +0.057 C 
ATOM      3  C   UNL     1     -32.775  -9.647  19.837  0.00  0.00    +0.020 C 
ATOM      4  C   UNL     1     -33.557 -10.306  18.717  0.00  0.00    +0.020 C 
ENDBRANCH   1   2
BRANCH   1   5
ATOM      5  C   UNL     1     -30.843  -9.842  16.552  0.00  0.00    +0.123 C 
BRANCH   5  12
ATOM      6  F   UNL     1     -33.101  -9.624  14.769  0.00  0.00    -0.205 F 
ATOM      7  C   UNL     1     -32.415 -10.794  14.799  0.00  0.00    +0.128 A 
ATOM      8  C   UNL     1     -32.838 -11.853  13.988  0.00  0.00    +0.038 A 
ATOM      9  C   UNL     1     -32.158 -13.073  14.014  0.00  0.00    +0.003 A 
ATOM     10  C   UNL     1     -31.054 -13.240  14.852  0.00  0.00    +0.000 A 
ATOM     11  C   UNL     1     -30.625 -12.188  15.665  0.00  0.00    +0.008 A 
ATOM     12  C   UNL     1     -31.298 -10.954  15.641  0.00  0.00    +0.002 A 
ENDBRANCH   5  12
ENDBRANCH   1   5
BRANCH   1  13
ATOM     13  C   UNL     1     -30.029  -9.887  18.861  0.00  0.00    +0.144 C 
BRANCH  13  14
ATOM     14  C   UNL     1     -29.055 -11.038  18.952  0.00  0.00    +0.104 A 
ATOM     15  N   UNL     1     -27.836 -10.993  18.330  0.00  0.00    -0.143 NA
ATOM     16  N   UNL     1     -27.085 -12.078  18.492  0.00  0.00    -0.109 NA
ATOM     17  S   UNL     1     -27.935 -13.146  19.434  0.00  0.00    +0.049 S 
ATOM     18  C   UNL     1     -29.301 -12.220  19.653  0.00  0.00    +0.122 A 
ATOM     19 CL   UNL     1     -30.707 -12.662  20.606  0.00  0.00    -0.072 Cl
ENDBRANCH  13  14
ENDBRANCH   1  13
TORSDOF 5
ENDMDL
MODEL 5
REMARK VINA RESULT:    -3.667      2.736      5.114
REMARK INTER + INTRA:          -5.964
REMARK INTER:                  -5.297
REMARK INTRA:                  -0.668
REMARK UNBOUND:                -1.225
REMARK  Name = 
REMARK  5 active torsions:
REMARK  status: ('A' for Active; 'I' for Inactive)
REMARK    1  A    between atoms: C_7  and  C_8
REMARK    2  A    between atoms: C_8  and  N_9
REMARK    3  A    between atoms: N_9  and  C_10
REMARK    4  A    between atoms: N_9  and  C_17
REMARK    5  A    between atoms: C_10  and  C_11
REMARK                            x       y       z     vdW  Elec       q    Type
REMARK                         _______ _______ _______ _____ _____    ______ ____
ROOT
ATOM      1  N   UNL     1     -30.429 -13.775  15.520  0.00  0.00    -0.289 NA
ENDROOT
BRANCH   1   2
ATOM      2  C   UNL     1     -30.045 -14.834  14.568  0.00  0.00    +0.057 C 
ATOM      3  C   UNL     1     -28.545 -14.963  14.348  0.00  0.00    +0.020 C 
ATOM      4  C   UNL     1     -29.409 -14.297  13.294  0.00  0.00    +0.020 C 
ENDBRANCH   1   2
BRANCH   1   5
ATOM      5  C   UNL     1     -31.746 -13.203  15.169  0.00  0.00    +0.123 C 
BRANCH   5  12
ATOM      6  F   UNL     1     -34.142 -12.540  16.634  0.00  0.00    -0.205 F 
ATOM      7  C   UNL     1     -33.155 -11.612  16.559  0.00  0.00    +0.128 A 
ATOM      8  C   UNL     1     -33.343 -10.367  17.170  0.00  0.00    +0.038 A 
ATOM      9  C   UNL     1     -32.349  -9.389  17.093  0.00  0.00    +0.003 A 
ATOM     10  C   UNL     1     -31.164  -9.649  16.402  0.00  0.00    +0.000 A 
ATOM     11  C   UNL     1     -30.968 -10.890  15.789  0.00  0.00    +0.008 A 
ATOM     12  C   UNL     1     -31.959 -11.884  15.868  0.00  0.00    +0.002 A 
ENDBRANCH   5  12
ENDBRANCH   1   5
BRANCH   1  13
ATOM     13  C   UNL     1     -30.404 -14.272  16.917  0.00  0.00    +0.144 C 
BRANCH  13  14
ATOM     14  C   UNL     1     -29.463 -13.506  17.816  0.00  0.00    +0.104 A 
ATOM     15  N   UNL     1     -28.135 -13.373  17.513  0.00  0.00    -0.143 NA
ATOM     16  N   UNL     1     -27.425 -12.678  18.397  0.00  0.00    -0.109 NA
ATOM     17  S   UNL     1     -28.454 -12.198  19.606  0.00  0.00    +0.049 S 
ATOM     18  C   UNL     1     -29.847 -12.886  19.007  0.00  0.00    +0.122 A 
ATOM     19 CL   UNL     1     -31.442 -12.787  19.732  0.00  0.00    -0.072 Cl
ENDBRANCH  13  14
ENDBRANCH   1  13
TORSDOF 5
ENDMDL
MODEL 6
REMARK VINA RESULT:    -3.620      3.726      5.266
REMARK INTER + INTRA:          -5.903
REMARK INTER:                  -4.794
REMARK INTRA:                  -1.109
REMARK UNBOUND:                -1.225
REMARK  Name = 
REMARK  5 active torsions:
REMARK  status: ('A' for Active; 'I' for Inactive)
REMARK    1  A    between atoms: C_7  and  C_8
REMARK    2  A    between atoms: C_8  and  N_9
REMARK    3  A    between atoms: N_9  and  C_10
REMARK    4  A    between atoms: N_9  and  C_17
REMARK    5  A    between atoms: C_10  and  C_11
REMARK                            x       y       z     vdW  Elec       q    Type
REMARK                         _______ _______ _______ _____ _____    ______ ____
ROOT
ATOM      1  N   UNL     1     -29.271 -11.717  18.790  0.00  0.00    -0.289 NA
ENDROOT
BRANCH   1   2
ATOM      2  C   UNL     1     -29.048 -11.496  20.231  0.00  0.00    +0.057 C 
ATOM      3  C   UNL     1     -29.073 -12.766  21.069  0.00  0.00    +0.020 C 
ATOM      4  C   UNL     1     -30.263 -11.826  21.086  0.00  0.00    +0.020 C 
ENDBRANCH   1   2
BRANCH   1   5
ATOM      5  C   UNL     1     -29.143 -10.452  18.037  0.00  0.00    +0.123 C 
BRANCH   5  12
ATOM      6  F   UNL     1     -31.083  -8.910  19.515  0.00  0.00    -0.205 F 
ATOM      7  C   UNL     1     -31.388  -9.284  18.247  0.00  0.00    +0.128 A 
ATOM      8  C   UNL     1     -32.633  -8.931  17.714  0.00  0.00    +0.038 A 
ATOM      9  C   UNL     1     -32.977  -9.318  16.417  0.00  0.00    +0.003 A 
ATOM     10  C   UNL     1     -32.080 -10.062  15.647  0.00  0.00    +0.000 A 
ATOM     11  C   UNL     1     -30.835 -10.418  16.172  0.00  0.00    +0.008 A 
ATOM     12  C   UNL     1     -30.476 -10.028  17.474  0.00  0.00    +0.002 A 
ENDBRANCH   5  12
ENDBRANCH   1   5
BRANCH   1  13
ATOM     13  C   UNL     1     -28.365 -12.763  18.259  0.00  0.00    +0.144 C 
BRANCH  13  14
ATOM     14  C   UNL     1     -28.959 -13.561  17.122  0.00  0.00    +0.104 A 
ATOM     15  N   UNL     1     -28.187 -14.009  16.083  0.00  0.00    -0.143 NA
ATOM     16  N   UNL     1     -28.845 -14.693  15.152  0.00  0.00    -0.109 NA
ATOM     17  S   UNL     1     -30.439 -14.762  15.605  0.00  0.00    +0.049 S 
ATOM     18  C   UNL     1     -30.309 -13.901  17.025  0.00  0.00    +0.122 A 
ATOM     19 CL   UNL     1     -31.614 -13.559  18.147  0.00  0.00    -0.072 Cl
ENDBRANCH  13  14
ENDBRANCH   1  13
TORSDOF 5
ENDMDL
MODEL 7
REMARK VINA RESULT:    -3.246      3.071      5.447
REMARK INTER + INTRA:          -5.420
REMARK INTER:                  -4.687
REMARK INTRA:                  -0.734
REMARK UNBOUND:                -1.225
REMARK  Name = 
REMARK  5 active torsions:
REMARK  status: ('A' for Active; 'I' for Inactive)
REMARK    1  A    between atoms: C_7  and  C_8
REMARK    2  A    between atoms: C_8  and  N_9
REMARK    3  A    between atoms: N_9  and  C_10
REMARK    4  A    between atoms: N_9  and  C_17
REMARK    5  A    between atoms: C_10  and  C_11
REMARK                            x       y       z     vdW  Elec       q    Type
REMARK                         _______ _______ _______ _____ _____    ______ ____
ROOT
ATOM      1  N   UNL     1     -31.034 -13.022  16.425  0.00  0.00    -0.289 NA
ENDROOT
BRANCH   1   2
ATOM      2  C   UNL     1     -31.846 -11.793  16.347  0.00  0.00    +0.057 C 
ATOM      3  C   UNL     1     -31.807 -11.103  14.991  0.00  0.00    +0.020 C 
ATOM      4  C   UNL     1     -31.014 -10.533  16.152  0.00  0.00    +0.020 C 
ENDBRANCH   1   2
BRANCH   1   5
ATOM      5  C   UNL     1     -31.237 -13.706  17.720  0.00  0.00    +0.123 C 
BRANCH   5  12
ATOM      6  F   UNL     1     -31.903 -12.844  20.392  0.00  0.00    -0.205 F 
ATOM      7  C   UNL     1     -30.599 -12.833  20.018  0.00  0.00    +0.128 A 
ATOM      8  C   UNL     1     -29.633 -12.385  20.926  0.00  0.00    +0.038 A 
ATOM      9  C   UNL     1     -28.286 -12.349  20.559  0.00  0.00    +0.003 A 
ATOM     10  C   UNL     1     -27.898 -12.758  19.281  0.00  0.00    +0.000 A 
ATOM     11  C   UNL     1     -28.857 -13.207  18.368  0.00  0.00    +0.008 A 
ATOM     12  C   UNL     1     -30.214 -13.254  18.730  0.00  0.00    +0.002 A 
ENDBRANCH   5  12
ENDBRANCH   1   5
BRANCH   1  13
ATOM     13  C   UNL     1     -31.311 -13.924  15.282  0.00  0.00    +0.144 C 
BRANCH  13  14
ATOM     14  C   UNL     1     -30.086 -14.260  14.465  0.00  0.00    +0.104 A 
ATOM     15  N   UNL     1     -28.884 -14.538  15.060  0.00  0.00    -0.143 NA
ATOM     16  N   UNL     1     -27.892 -14.812  14.218  0.00  0.00    -0.109 NA
ATOM     17  S   UNL     1     -28.496 -14.715  12.676  0.00  0.00    +0.049 S 
ATOM     18  C   UNL     1     -30.064 -14.313  13.070  0.00  0.00    +0.122 A 
ATOM     19 CL   UNL     1     -31.381 -14.062  11.938  0.00  0.00    -0.072 Cl
ENDBRANCH  13  14
ENDBRANCH   1  13
TORSDOF 5
ENDMDL
MODEL 8
REMARK VINA RESULT:    -3.245      2.987      4.496
REMARK INTER + INTRA:          -5.418
REMARK INTER:                  -4.201
REMARK INTRA:                  -1.218
REMARK UNBOUND:                -1.225
REMARK  Name = 
REMARK  5 active torsions:
REMARK  status: ('A' for Active; 'I' for Inactive)
REMARK    1  A    between atoms: C_7  and  C_8
REMARK    2  A    between atoms: C_8  and  N_9
REMARK    3  A    between atoms: N_9  and  C_10
REMARK    4  A    between atoms: N_9  and  C_17
REMARK    5  A    between atoms: C_10  and  C_11
REMARK                            x       y       z     vdW  Elec       q    Type
REMARK                         _______ _______ _______ _____ _____    ______ ____
ROOT
ATOM      1  N   UNL     1     -32.093 -10.216  17.203  0.00  0.00    -0.289 NA
ENDROOT
BRANCH   1   2
ATOM      2  C   UNL     1     -33.331  -9.599  16.691  0.00  0.00    +0.057 C 
ATOM      3  C   UNL     1     -34.430  -9.445  17.732  0.00  0.00    +0.020 C 
ATOM      4  C   UNL     1     -34.522 -10.547  16.695  0.00  0.00    +0.020 C 
ENDBRANCH   1   2
BRANCH   1   5
ATOM      5  C   UNL     1     -31.079 -10.328  16.134  0.00  0.00    +0.123 C 
BRANCH   5  12
ATOM      6  F   UNL     1     -32.301 -11.380  13.741  0.00  0.00    -0.205 F 
ATOM      7  C   UNL     1     -31.562 -12.219  14.510  0.00  0.00    +0.128 A 
ATOM      8  C   UNL     1     -31.440 -13.561  14.130  0.00  0.00    +0.038 A 
ATOM      9  C   UNL     1     -30.699 -14.448  14.914  0.00  0.00    +0.003 A 
ATOM     10  C   UNL     1     -30.078 -13.999  16.082  0.00  0.00    +0.000 A 
ATOM     11  C   UNL     1     -30.195 -12.661  16.468  0.00  0.00    +0.008 A 
ATOM     12  C   UNL     1     -30.933 -11.758  15.683  0.00  0.00    +0.002 A 
ENDBRANCH   5  12
ENDBRANCH   1   5
BRANCH   1  13
ATOM     13  C   UNL     1     -31.569  -9.477  18.377  0.00  0.00    +0.144 C 
BRANCH  13  14
ATOM     14  C   UNL     1     -30.827 -10.350  19.361  0.00  0.00    +0.104 A 
ATOM     15  N   UNL     1     -29.547 -10.060  19.750  0.00  0.00    -0.143 NA
ATOM     16  N   UNL     1     -29.017 -10.917  20.617  0.00  0.00    -0.109 NA
ATOM     17  S   UNL     1     -30.151 -12.086  20.931  0.00  0.00    +0.049 S 
ATOM     18  C   UNL     1     -31.359 -11.502  19.944  0.00  0.00    +0.122 A 
ATOM     19 CL   UNL     1     -32.958 -12.198  19.747  0.00  0.00    -0.072 Cl
ENDBRANCH  13  14
ENDBRANCH   1  13
TORSDOF 5
ENDMDL
MODEL 9
REMARK VINA RESULT:    -3.204      2.942      3.707
REMARK INTER + INTRA:          -5.365
REMARK INTER:                  -4.617
REMARK INTRA:                  -0.748
REMARK UNBOUND:                -1.225
REMARK  Name = 
REMARK  5 active torsions:
REMARK  status: ('A' for Active; 'I' for Inactive)
REMARK    1  A    between atoms: C_7  and  C_8
REMARK    2  A    between atoms: C_8  and  N_9
REMARK    3  A    between atoms: N_9  and  C_10
REMARK    4  A    between atoms: N_9  and  C_17
REMARK    5  A    between atoms: C_10  and  C_11
REMARK                            x       y       z     vdW  Elec       q    Type
REMARK                         _______ _______ _______ _____ _____    ______ ____
ROOT
ATOM      1  N   UNL     1     -30.130 -13.099  18.655  0.00  0.00    -0.289 NA
ENDROOT
BRANCH   1   2
ATOM      2  C   UNL     1     -28.669 -13.197  18.473  0.00  0.00    +0.057 C 
ATOM      3  C   UNL     1     -27.856 -12.624  19.624  0.00  0.00    +0.020 C 
ATOM      4  C   UNL     1     -27.987 -11.844  18.330  0.00  0.00    +0.020 C 
ENDBRANCH   1   2
BRANCH   1   5
ATOM      5  C   UNL     1     -30.829 -14.150  17.887  0.00  0.00    +0.123 C 
BRANCH   5  12
ATOM      6  F   UNL     1     -29.606 -15.062  15.437  0.00  0.00    -0.205 F 
ATOM      7  C   UNL     1     -30.579 -14.120  15.360  0.00  0.00    +0.128 A 
ATOM      8  C   UNL     1     -30.935 -13.610  14.105  0.00  0.00    +0.038 A 
ATOM      9  C   UNL     1     -31.922 -12.627  14.001  0.00  0.00    +0.003 A 
ATOM     10  C   UNL     1     -32.555 -12.147  15.149  0.00  0.00    +0.000 A 
ATOM     11  C   UNL     1     -32.205 -12.651  16.405  0.00  0.00    +0.008 A 
ATOM     12  C   UNL     1     -31.219 -13.645  16.521  0.00  0.00    +0.002 A 
ENDBRANCH   5  12
ENDBRANCH   1   5
BRANCH   1  13
ATOM     13  C   UNL     1     -30.498 -13.135  20.090  0.00  0.00    +0.144 C 
BRANCH  13  14
ATOM     14  C   UNL     1     -31.491 -12.069  20.489  0.00  0.00    +0.104 A 
ATOM     15  N   UNL     1     -32.793 -12.113  20.068  0.00  0.00    -0.143 NA
ATOM     16  N   UNL     1     -33.552 -11.107  20.492  0.00  0.00    -0.109 NA
ATOM     17  S   UNL     1     -32.603 -10.114  21.423  0.00  0.00    +0.049 S 
ATOM     18  C   UNL     1     -31.182 -10.972  21.294  0.00  0.00    +0.122 A 
ATOM     19 CL   UNL     1     -29.657 -10.564  22.062  0.00  0.00    -0.072 Cl
ENDBRANCH  13  14
ENDBRANCH   1  13
TORSDOF 5
ENDMDL
