MODEL 1
REMARK VINA RESULT: 699864.961      0.000      0.000
REMARK INTER + INTRA:      945348.886
REMARK INTER:              945349.595
REMARK INTRA:                  -0.708
REMARK UNBOUND:                -0.708
REMARK  Name = 
REMARK  6 active torsions:
REMARK  status: ('A' for Active; 'I' for Inactive)
REMARK    1  A    between atoms: C_2  and  C_25
REMARK    2  A    between atoms: N_3  and  C_4
REMARK    3  A    between atoms: C_7  and  C_10
REMARK    4  A    between atoms: N_12  and  C_13
REMARK    5  A    between atoms: C_17  and  C_19
REMARK    6  A    between atoms: N_21  and  C_22
REMARK                            x       y       z     vdW  Elec       q    Type
REMARK                         _______ _______ _______ _____ _____    ______ ____
ROOT
ATOM      1  C   UNL     1     -31.810 -10.939  20.084  0.00  0.00    +0.248 C 
ATOM      2  O   UNL     1     -31.648 -10.595  21.287  0.00  0.00    -0.270 OA
ATOM      3  N   UNL     1     -31.451 -12.269  19.665  0.00  0.00    -0.281 N 
ATOM      4  H   UNL     1     -31.792 -12.629  18.747  0.00  0.00    +0.155 HD
ENDROOT
BRANCH   1   8
ATOM      5  C   UNL     1     -33.397  -8.035  17.323  0.00  0.00    +0.034 A 
ATOM      6  C   UNL     1     -32.556  -7.641  18.379  0.00  0.00    +0.024 A 
ATOM      7  C   UNL     1     -32.057  -8.590  19.276  0.00  0.00    +0.015 A 
ATOM      8  C   UNL     1     -32.370  -9.952  19.127  0.00  0.00    +0.037 A 
ATOM      9  C   UNL     1     -33.211 -10.342  18.070  0.00  0.00    +0.015 A 
ATOM     10  C   UNL     1     -33.711  -9.393  17.174  0.00  0.00    +0.024 A 
BRANCH   5  13
ATOM     11  O   UNL     1     -31.962  -5.796  16.130  0.00  0.00    -0.270 OA
ATOM     12  C   UNL     1     -33.052  -6.183  15.625  0.00  0.00    +0.248 C 
ATOM     13  N   UNL     1     -33.893  -7.085  16.364  0.00  0.00    -0.282 N 
ATOM     14  H   UNL     1     -34.927  -6.990  16.256  0.00  0.00    +0.155 HD
BRANCH  12  15
ATOM     15  C   UNL     1     -33.468  -5.667  14.297  0.00  0.00    +0.037 A 
ATOM     16  C   UNL     1     -32.509  -5.442  13.291  0.00  0.00    +0.013 A 
ATOM     17  C   UNL     1     -32.895  -4.968  12.034  0.00  0.00    +0.001 A 
ATOM     18  C   UNL     1     -34.242  -4.711  11.765  0.00  0.00    +0.000 A 
ATOM     19  C   UNL     1     -35.205  -4.937  12.751  0.00  0.00    +0.001 A 
ATOM     20  C   UNL     1     -34.825  -5.415  14.009  0.00  0.00    +0.013 A 
ENDBRANCH  12  15
ENDBRANCH   5  13
ENDBRANCH   1   8
BRANCH   3  21
ATOM     21  C   UNL     1     -30.664 -13.171  20.462  0.00  0.00    +0.034 A 
ATOM     22  C   UNL     1     -31.276 -13.873  21.510  0.00  0.00    +0.023 A 
ATOM     23  C   UNL     1     -30.544 -14.785  22.270  0.00  0.00    +0.003 A 
ATOM     24  C   UNL     1     -29.197 -15.015  21.989  0.00  0.00    +0.013 A 
ATOM     25  C   UNL     1     -28.561 -14.332  20.937  0.00  0.00    +0.038 A 
ATOM     26  C   UNL     1     -29.311 -13.422  20.167  0.00  0.00    +0.036 A 
BRANCH  25  27
ATOM     27  C   UNL     1     -27.135 -14.583  20.604  0.00  0.00    +0.244 C 
ATOM     28  O   UNL     1     -26.319 -14.832  21.533  0.00  0.00    -0.270 OA
ATOM     29  N   UNL     1     -26.671 -14.567  19.246  0.00  0.00    -0.308 N 
ATOM     30  H   UNL     1     -27.355 -14.504  18.459  0.00  0.00    +0.149 HD
BRANCH  29  31
ATOM     31  C   UNL     1     -25.247 -14.676  18.939  0.00  0.00    +0.073 C 
ATOM     32  C   UNL     1     -24.741 -13.630  17.958  0.00  0.00    +0.024 C 
ATOM     33  C   UNL     1     -24.971 -15.063  17.496  0.00  0.00    +0.024 C 
ENDBRANCH  29  31
ENDBRANCH  25  27
ENDBRANCH   3  21
TORSDOF 6
ENDMDL
