MODEL 1
REMARK VINA RESULT:    -4.791      0.000      0.000
REMARK INTER + INTRA:          -7.451
REMARK INTER:                  -6.051
REMARK INTRA:                  -1.400
REMARK UNBOUND:                -1.400
REMARK  Name = 
REMARK  6 active torsions:
REMARK  status: ('A' for Active; 'I' for Inactive)
REMARK    1  A    between atoms: C_1  and  C_2
REMARK    2  A    between atoms: C_5  and  O_6
REMARK    3  A    between atoms: O_6  and  C_7
REMARK    4  A    between atoms: C_7  and  C_8
REMARK    5  A    between atoms: C_16  and  C_18
REMARK    6  A    between atoms: C_18  and  O_20
REMARK                            x       y       z     vdW  Elec       q    Type
REMARK                         _______ _______ _______ _____ _____    ______ ____
ROOT
ATOM      1  C   UNL     1     -27.335 -15.062  12.226  0.00  0.00    +0.044 C 
ATOM      2  C   UNL     1     -28.519 -14.723  13.084  0.00  0.00    -0.049 A 
ATOM      3  C   UNL     1     -29.756 -14.447  12.495  0.00  0.00    +0.007 A 
ATOM      4  C   UNL     1     -30.850 -14.097  13.287  0.00  0.00    +0.047 A 
ATOM      5  C   UNL     1     -30.723 -14.001  14.688  0.00  0.00    +0.135 A 
ATOM      6  C   UNL     1     -29.466 -14.261  15.289  0.00  0.00    +0.101 A 
ATOM      7  C   UNL     1     -28.374 -14.614  14.472  0.00  0.00    +0.022 A 
ENDROOT
BRANCH   6   8
ATOM      8  C   UNL     1     -29.265 -14.169  16.760  0.00  0.00    +0.340 C 
ATOM      9  O   UNL     1     -28.330 -13.478  17.246  0.00  0.00    -0.245 OA
BRANCH   8  10
ATOM     10  O   UNL     1     -30.116 -14.851  17.625  0.00  0.00    -0.477 OA
ATOM     11  H   UNL     1     -30.088 -14.683  18.625  0.00  0.00    +0.295 HD
ENDBRANCH   8  10
ENDBRANCH   6   8
BRANCH   5  12
ATOM     12  O   UNL     1     -31.818 -13.651  15.495  0.00  0.00    -0.487 OA
BRANCH  12  13
ATOM     13  C   UNL     1     -32.470 -12.385  15.485  0.00  0.00    +0.264 C 
BRANCH  13  14
ATOM     14  C   UNL     1     -31.944 -11.554  16.618  0.00  0.00    -0.009 A 
ATOM     15  C   UNL     1     -31.084 -10.476  16.364  0.00  0.00    +0.008 A 
ATOM     16  C   UNL     1     -30.560  -9.728  17.422  0.00  0.00    +0.022 A 
ATOM     17  C   UNL     1     -30.879 -10.057  18.744  0.00  0.00    +0.059 A 
ATOM     18 CL   UNL     1     -30.199  -9.094  20.049  0.00  0.00    -0.082 Cl
ATOM     19  C   UNL     1     -31.725 -11.147  19.007  0.00  0.00    +0.060 A 
ATOM     20 CL   UNL     1     -32.140 -11.603  20.654  0.00  0.00    -0.082 Cl
ATOM     21  C   UNL     1     -32.249 -11.895  17.945  0.00  0.00    +0.028 A 
ENDBRANCH  13  14
ENDBRANCH  12  13
ENDBRANCH   5  12
TORSDOF 5
ENDMDL
MODEL 2
REMARK VINA RESULT:    -4.786      2.794      3.749
REMARK INTER + INTRA:          -7.445
REMARK INTER:                  -6.074
REMARK INTRA:                  -1.371
REMARK UNBOUND:                -1.400
REMARK  Name = 
REMARK  6 active torsions:
REMARK  status: ('A' for Active; 'I' for Inactive)
REMARK    1  A    between atoms: C_1  and  C_2
REMARK    2  A    between atoms: C_5  and  O_6
REMARK    3  A    between atoms: O_6  and  C_7
REMARK    4  A    between atoms: C_7  and  C_8
REMARK    5  A    between atoms: C_16  and  C_18
REMARK    6  A    between atoms: C_18  and  O_20
REMARK                            x       y       z     vdW  Elec       q    Type
REMARK                         _______ _______ _______ _____ _____    ______ ____
ROOT
ATOM      1  C   UNL     1     -32.462 -12.934  12.067  0.00  0.00    +0.044 C 
ATOM      2  C   UNL     1     -32.275 -12.906  13.556  0.00  0.00    -0.049 A 
ATOM      3  C   UNL     1     -33.006 -12.007  14.340  0.00  0.00    +0.007 A 
ATOM      4  C   UNL     1     -32.810 -11.955  15.720  0.00  0.00    +0.047 A 
ATOM      5  C   UNL     1     -31.864 -12.793  16.344  0.00  0.00    +0.135 A 
ATOM      6  C   UNL     1     -31.107 -13.694  15.554  0.00  0.00    +0.101 A 
ATOM      7  C   UNL     1     -31.320 -13.732  14.163  0.00  0.00    +0.022 A 
ENDROOT
BRANCH   6   8
ATOM      8  C   UNL     1     -30.089 -14.598  16.151  0.00  0.00    +0.340 C 
ATOM      9  O   UNL     1     -29.074 -14.958  15.496  0.00  0.00    -0.245 OA
BRANCH   8  10
ATOM     10  O   UNL     1     -30.247 -15.062  17.455  0.00  0.00    -0.477 OA
ATOM     11  H   UNL     1     -29.475 -15.043  18.112  0.00  0.00    +0.295 HD
ENDBRANCH   8  10
ENDBRANCH   6   8
BRANCH   5  12
ATOM     12  O   UNL     1     -31.660 -12.751  17.733  0.00  0.00    -0.487 OA
BRANCH  12  13
ATOM     13  C   UNL     1     -31.097 -11.652  18.444  0.00  0.00    +0.264 C 
BRANCH  13  14
ATOM     14  C   UNL     1     -29.726 -12.029  18.922  0.00  0.00    -0.009 A 
ATOM     15  C   UNL     1     -28.588 -11.568  18.243  0.00  0.00    +0.008 A 
ATOM     16  C   UNL     1     -27.313 -11.954  18.663  0.00  0.00    +0.022 A 
ATOM     17  C   UNL     1     -27.160 -12.814  19.756  0.00  0.00    +0.059 A 
ATOM     18 CL   UNL     1     -25.539 -13.279  20.254  0.00  0.00    -0.082 Cl
ATOM     19  C   UNL     1     -28.295 -13.294  20.429  0.00  0.00    +0.060 A 
ATOM     20 CL   UNL     1     -28.148 -14.387  21.800  0.00  0.00    -0.082 Cl
ATOM     21  C   UNL     1     -29.573 -12.906  20.007  0.00  0.00    +0.028 A 
ENDBRANCH  13  14
ENDBRANCH  12  13
ENDBRANCH   5  12
TORSDOF 5
ENDMDL
MODEL 3
REMARK VINA RESULT:    -4.636      3.902      5.834
REMARK INTER + INTRA:          -7.255
REMARK INTER:                  -5.954
REMARK INTRA:                  -1.301
REMARK UNBOUND:                -1.400
REMARK  Name = 
REMARK  6 active torsions:
REMARK  status: ('A' for Active; 'I' for Inactive)
REMARK    1  A    between atoms: C_1  and  C_2
REMARK    2  A    between atoms: C_5  and  O_6
REMARK    3  A    between atoms: O_6  and  C_7
REMARK    4  A    between atoms: C_7  and  C_8
REMARK    5  A    between atoms: C_16  and  C_18
REMARK    6  A    between atoms: C_18  and  O_20
REMARK                            x       y       z     vdW  Elec       q    Type
REMARK                         _______ _______ _______ _____ _____    ______ ____
ROOT
ATOM      1  C   UNL     1     -25.329 -14.626  21.408  0.00  0.00    +0.044 C 
ATOM      2  C   UNL     1     -26.576 -13.926  20.952  0.00  0.00    -0.049 A 
ATOM      3  C   UNL     1     -27.814 -14.267  21.504  0.00  0.00    +0.007 A 
ATOM      4  C   UNL     1     -28.980 -13.643  21.057  0.00  0.00    +0.047 A 
ATOM      5  C   UNL     1     -28.930 -12.672  20.037  0.00  0.00    +0.135 A 
ATOM      6  C   UNL     1     -27.680 -12.335  19.460  0.00  0.00    +0.101 A 
ATOM      7  C   UNL     1     -26.516 -12.976  19.925  0.00  0.00    +0.022 A 
ENDROOT
BRANCH   6   8
ATOM      8  C   UNL     1     -27.563 -11.326  18.375  0.00  0.00    +0.340 C 
ATOM      9  O   UNL     1     -26.435 -10.925  17.979  0.00  0.00    -0.245 OA
BRANCH   8  10
ATOM     10  O   UNL     1     -28.708 -10.807  17.777  0.00  0.00    -0.477 OA
ATOM     11  H   UNL     1     -29.530 -10.585  18.328  0.00  0.00    +0.295 HD
ENDBRANCH   8  10
ENDBRANCH   6   8
BRANCH   5  12
ATOM     12  O   UNL     1     -30.097 -12.036  19.582  0.00  0.00    -0.487 OA
BRANCH  12  13
ATOM     13  C   UNL     1     -31.289 -12.704  19.179  0.00  0.00    +0.264 C 
BRANCH  13  14
ATOM     14  C   UNL     1     -31.177 -13.073  17.729  0.00  0.00    -0.009 A 
ATOM     15  C   UNL     1     -30.556 -14.273  17.351  0.00  0.00    +0.008 A 
ATOM     16  C   UNL     1     -30.414 -14.597  15.999  0.00  0.00    +0.022 A 
ATOM     17  C   UNL     1     -30.878 -13.721  15.011  0.00  0.00    +0.059 A 
ATOM     18 CL   UNL     1     -30.680 -14.163  13.321  0.00  0.00    -0.082 Cl
ATOM     19  C   UNL     1     -31.485 -12.510  15.382  0.00  0.00    +0.060 A 
ATOM     20 CL   UNL     1     -32.070 -11.376  14.172  0.00  0.00    -0.082 Cl
ATOM     21  C   UNL     1     -31.626 -12.187  16.738  0.00  0.00    +0.028 A 
ENDBRANCH  13  14
ENDBRANCH  12  13
ENDBRANCH   5  12
TORSDOF 5
ENDMDL
MODEL 4
REMARK VINA RESULT:    -4.458      3.356      4.919
REMARK INTER + INTRA:          -7.031
REMARK INTER:                  -6.095
REMARK INTRA:                  -0.936
REMARK UNBOUND:                -1.400
REMARK  Name = 
REMARK  6 active torsions:
REMARK  status: ('A' for Active; 'I' for Inactive)
REMARK    1  A    between atoms: C_1  and  C_2
REMARK    2  A    between atoms: C_5  and  O_6
REMARK    3  A    between atoms: O_6  and  C_7
REMARK    4  A    between atoms: C_7  and  C_8
REMARK    5  A    between atoms: C_16  and  C_18
REMARK    6  A    between atoms: C_18  and  O_20
REMARK                            x       y       z     vdW  Elec       q    Type
REMARK                         _______ _______ _______ _____ _____    ______ ____
ROOT
ATOM      1  C   UNL     1     -32.303 -13.212  12.392  0.00  0.00    +0.044 C 
ATOM      2  C   UNL     1     -31.860 -12.621  13.699  0.00  0.00    -0.049 A 
ATOM      3  C   UNL     1     -30.903 -13.277  14.479  0.00  0.00    +0.007 A 
ATOM      4  C   UNL     1     -30.516 -12.749  15.710  0.00  0.00    +0.047 A 
ATOM      5  C   UNL     1     -31.090 -11.556  16.195  0.00  0.00    +0.135 A 
ATOM      6  C   UNL     1     -32.074 -10.895  15.418  0.00  0.00    +0.101 A 
ATOM      7  C   UNL     1     -32.452 -11.445  14.177  0.00  0.00    +0.022 A 
ENDROOT
BRANCH   6   8
ATOM      8  C   UNL     1     -32.725  -9.640  15.877  0.00  0.00    +0.340 C 
ATOM      9  O   UNL     1     -33.853  -9.292  15.435  0.00  0.00    -0.245 OA
BRANCH   8  10
ATOM     10  O   UNL     1     -32.088  -8.825  16.810  0.00  0.00    -0.477 OA
ATOM     11  H   UNL     1     -32.074  -9.071  17.793  0.00  0.00    +0.295 HD
ENDBRANCH   8  10
ENDBRANCH   6   8
BRANCH   5  12
ATOM     12  O   UNL     1     -30.706 -11.014  17.432  0.00  0.00    -0.487 OA
BRANCH  12  13
ATOM     13  C   UNL     1     -29.363 -10.746  17.825  0.00  0.00    +0.264 C 
BRANCH  13  14
ATOM     14  C   UNL     1     -28.939 -11.762  18.845  0.00  0.00    -0.009 A 
ATOM     15  C   UNL     1     -29.886 -12.339  19.705  0.00  0.00    +0.008 A 
ATOM     16  C   UNL     1     -29.484 -13.253  20.682  0.00  0.00    +0.022 A 
ATOM     17  C   UNL     1     -28.133 -13.591  20.820  0.00  0.00    +0.059 A 
ATOM     18 CL   UNL     1     -27.667 -14.744  22.062  0.00  0.00    -0.082 Cl
ATOM     19  C   UNL     1     -27.178 -13.003  19.974  0.00  0.00    +0.060 A 
ATOM     20 CL   UNL     1     -25.469 -13.390  20.123  0.00  0.00    -0.082 Cl
ATOM     21  C   UNL     1     -27.583 -12.087  18.996  0.00  0.00    +0.028 A 
ENDBRANCH  13  14
ENDBRANCH  12  13
ENDBRANCH   5  12
TORSDOF 5
ENDMDL
MODEL 5
REMARK VINA RESULT:    -4.440      3.347      4.964
REMARK INTER + INTRA:          -7.008
REMARK INTER:                  -5.631
REMARK INTRA:                  -1.377
REMARK UNBOUND:                -1.400
REMARK  Name = 
REMARK  6 active torsions:
REMARK  status: ('A' for Active; 'I' for Inactive)
REMARK    1  A    between atoms: C_1  and  C_2
REMARK    2  A    between atoms: C_5  and  O_6
REMARK    3  A    between atoms: O_6  and  C_7
REMARK    4  A    between atoms: C_7  and  C_8
REMARK    5  A    between atoms: C_16  and  C_18
REMARK    6  A    between atoms: C_18  and  O_20
REMARK                            x       y       z     vdW  Elec       q    Type
REMARK                         _______ _______ _______ _____ _____    ______ ____
ROOT
ATOM      1  C   UNL     1     -33.836 -11.456  14.009  0.00  0.00    +0.044 C 
ATOM      2  C   UNL     1     -33.427 -11.805  15.410  0.00  0.00    -0.049 A 
ATOM      3  C   UNL     1     -33.869 -11.028  16.485  0.00  0.00    +0.007 A 
ATOM      4  C   UNL     1     -33.463 -11.328  17.785  0.00  0.00    +0.047 A 
ATOM      5  C   UNL     1     -32.592 -12.408  18.035  0.00  0.00    +0.135 A 
ATOM      6  C   UNL     1     -32.126 -13.189  16.949  0.00  0.00    +0.101 A 
ATOM      7  C   UNL     1     -32.547 -12.869  15.643  0.00  0.00    +0.022 A 
ENDROOT
BRANCH   6   8
ATOM      8  C   UNL     1     -31.199 -14.335  17.145  0.00  0.00    +0.340 C 
ATOM      9  O   UNL     1     -30.401 -14.690  16.236  0.00  0.00    -0.245 OA
BRANCH   8  10
ATOM     10  O   UNL     1     -31.201 -15.036  18.349  0.00  0.00    -0.477 OA
ATOM     11  H   UNL     1     -31.246 -16.049  18.362  0.00  0.00    +0.295 HD
ENDBRANCH   8  10
ENDBRANCH   6   8
BRANCH   5  12
ATOM     12  O   UNL     1     -32.178 -12.721  19.341  0.00  0.00    -0.487 OA
BRANCH  12  13
ATOM     13  C   UNL     1     -31.414 -11.864  20.184  0.00  0.00    +0.264 C 
BRANCH  13  14
ATOM     14  C   UNL     1     -29.982 -12.310  20.166  0.00  0.00    -0.009 A 
ATOM     15  C   UNL     1     -29.526 -13.263  21.089  0.00  0.00    +0.008 A 
ATOM     16  C   UNL     1     -28.182 -13.646  21.099  0.00  0.00    +0.022 A 
ATOM     17  C   UNL     1     -27.277 -13.073  20.198  0.00  0.00    +0.059 A 
ATOM     18 CL   UNL     1     -25.595 -13.580  20.243  0.00  0.00    -0.082 Cl
ATOM     19  C   UNL     1     -27.724 -12.104  19.284  0.00  0.00    +0.060 A 
ATOM     20 CL   UNL     1     -26.617 -11.350  18.144  0.00  0.00    -0.082 Cl
ATOM     21  C   UNL     1     -29.071 -11.722  19.275  0.00  0.00    +0.028 A 
ENDBRANCH  13  14
ENDBRANCH  12  13
ENDBRANCH   5  12
TORSDOF 5
ENDMDL
MODEL 6
REMARK VINA RESULT:    -4.161      3.844      5.638
REMARK INTER + INTRA:          -6.655
REMARK INTER:                  -5.816
REMARK INTRA:                  -0.839
REMARK UNBOUND:                -1.400
REMARK  Name = 
REMARK  6 active torsions:
REMARK  status: ('A' for Active; 'I' for Inactive)
REMARK    1  A    between atoms: C_1  and  C_2
REMARK    2  A    between atoms: C_5  and  O_6
REMARK    3  A    between atoms: O_6  and  C_7
REMARK    4  A    between atoms: C_7  and  C_8
REMARK    5  A    between atoms: C_16  and  C_18
REMARK    6  A    between atoms: C_18  and  O_20
REMARK                            x       y       z     vdW  Elec       q    Type
REMARK                         _______ _______ _______ _____ _____    ______ ____
ROOT
ATOM      1  C   UNL     1     -27.482 -14.256  21.049  0.00  0.00    +0.044 C 
ATOM      2  C   UNL     1     -28.308 -13.258  20.291  0.00  0.00    -0.049 A 
ATOM      3  C   UNL     1     -27.692 -12.346  19.429  0.00  0.00    +0.007 A 
ATOM      4  C   UNL     1     -28.453 -11.395  18.750  0.00  0.00    +0.047 A 
ATOM      5  C   UNL     1     -29.849 -11.327  18.932  0.00  0.00    +0.135 A 
ATOM      6  C   UNL     1     -30.478 -12.236  19.818  0.00  0.00    +0.101 A 
ATOM      7  C   UNL     1     -29.692 -13.190  20.494  0.00  0.00    +0.022 A 
ENDROOT
BRANCH   6   8
ATOM      8  C   UNL     1     -31.945 -12.211  20.060  0.00  0.00    +0.340 C 
ATOM      9  O   UNL     1     -32.436 -11.536  21.005  0.00  0.00    -0.245 OA
BRANCH   8  10
ATOM     10  O   UNL     1     -32.801 -12.938  19.237  0.00  0.00    -0.477 OA
ATOM     11  H   UNL     1     -33.779 -12.688  19.151  0.00  0.00    +0.295 HD
ENDBRANCH   8  10
ENDBRANCH   6   8
BRANCH   5  12
ATOM     12  O   UNL     1     -30.625 -10.374  18.251  0.00  0.00    -0.487 OA
BRANCH  12  13
ATOM     13  C   UNL     1     -30.351  -9.878  16.945  0.00  0.00    +0.264 C 
BRANCH  13  14
ATOM     14  C   UNL     1     -31.347 -10.455  15.983  0.00  0.00    -0.009 A 
ATOM     15  C   UNL     1     -32.599  -9.845  15.810  0.00  0.00    +0.008 A 
ATOM     16  C   UNL     1     -33.542 -10.406  14.945  0.00  0.00    +0.022 A 
ATOM     17  C   UNL     1     -33.252 -11.588  14.255  0.00  0.00    +0.059 A 
ATOM     18 CL   UNL     1     -34.465 -12.265  13.178  0.00  0.00    -0.082 Cl
ATOM     19  C   UNL     1     -32.008 -12.214  14.438  0.00  0.00    +0.060 A 
ATOM     20 CL   UNL     1     -31.607 -13.708  13.600  0.00  0.00    -0.082 Cl
ATOM     21  C   UNL     1     -31.063 -11.650  15.304  0.00  0.00    +0.028 A 
ENDBRANCH  13  14
ENDBRANCH  12  13
ENDBRANCH   5  12
TORSDOF 5
ENDMDL
MODEL 7
REMARK VINA RESULT:    -4.148      2.984      4.736
REMARK INTER + INTRA:          -6.639
REMARK INTER:                  -5.660
REMARK INTRA:                  -0.979
REMARK UNBOUND:                -1.400
REMARK  Name = 
REMARK  6 active torsions:
REMARK  status: ('A' for Active; 'I' for Inactive)
REMARK    1  A    between atoms: C_1  and  C_2
REMARK    2  A    between atoms: C_5  and  O_6
REMARK    3  A    between atoms: O_6  and  C_7
REMARK    4  A    between atoms: C_7  and  C_8
REMARK    5  A    between atoms: C_16  and  C_18
REMARK    6  A    between atoms: C_18  and  O_20
REMARK                            x       y       z     vdW  Elec       q    Type
REMARK                         _______ _______ _______ _____ _____    ______ ____
ROOT
ATOM      1  C   UNL     1     -33.493 -13.072  12.045  0.00  0.00    +0.044 C 
ATOM      2  C   UNL     1     -32.946 -12.321  13.223  0.00  0.00    -0.049 A 
ATOM      3  C   UNL     1     -31.832 -12.809  13.913  0.00  0.00    +0.007 A 
ATOM      4  C   UNL     1     -31.343 -12.131  15.030  0.00  0.00    +0.047 A 
ATOM      5  C   UNL     1     -31.970 -10.955  15.489  0.00  0.00    +0.135 A 
ATOM      6  C   UNL     1     -33.110 -10.464  14.806  0.00  0.00    +0.101 A 
ATOM      7  C   UNL     1     -33.588 -11.163  13.680  0.00  0.00    +0.022 A 
ENDROOT
BRANCH   6   8
ATOM      8  C   UNL     1     -33.820  -9.235  15.245  0.00  0.00    +0.340 C 
ATOM      9  O   UNL     1     -34.833  -8.812  14.625  0.00  0.00    -0.245 OA
BRANCH   8  10
ATOM     10  O   UNL     1     -33.371  -8.529  16.359  0.00  0.00    -0.477 OA
ATOM     11  H   UNL     1     -33.562  -8.859  17.298  0.00  0.00    +0.295 HD
ENDBRANCH   8  10
ENDBRANCH   6   8
BRANCH   5  12
ATOM     12  O   UNL     1     -31.484 -10.264  16.611  0.00  0.00    -0.487 OA
BRANCH  12  13
ATOM     13  C   UNL     1     -30.121  -9.912  16.828  0.00  0.00    +0.264 C 
BRANCH  13  14
ATOM     14  C   UNL     1     -29.630 -10.600  18.068  0.00  0.00    -0.009 A 
ATOM     15  C   UNL     1     -28.859 -11.768  17.971  0.00  0.00    +0.008 A 
ATOM     16  C   UNL     1     -28.437 -12.431  19.126  0.00  0.00    +0.022 A 
ATOM     17  C   UNL     1     -28.791 -11.944  20.389  0.00  0.00    +0.059 A 
ATOM     18 CL   UNL     1     -28.243 -12.807  21.819  0.00  0.00    -0.082 Cl
ATOM     19  C   UNL     1     -29.578 -10.785  20.494  0.00  0.00    +0.060 A 
ATOM     20 CL   UNL     1     -30.056 -10.146  22.061  0.00  0.00    -0.082 Cl
ATOM     21  C   UNL     1     -29.999 -10.121  19.335  0.00  0.00    +0.028 A 
ENDBRANCH  13  14
ENDBRANCH  12  13
ENDBRANCH   5  12
TORSDOF 5
ENDMDL
MODEL 8
REMARK VINA RESULT:    -4.081      2.851      3.222
REMARK INTER + INTRA:          -6.554
REMARK INTER:                  -5.482
REMARK INTRA:                  -1.073
REMARK UNBOUND:                -1.400
REMARK  Name = 
REMARK  6 active torsions:
REMARK  status: ('A' for Active; 'I' for Inactive)
REMARK    1  A    between atoms: C_1  and  C_2
REMARK    2  A    between atoms: C_5  and  O_6
REMARK    3  A    between atoms: O_6  and  C_7
REMARK    4  A    between atoms: C_7  and  C_8
REMARK    5  A    between atoms: C_16  and  C_18
REMARK    6  A    between atoms: C_18  and  O_20
REMARK                            x       y       z     vdW  Elec       q    Type
REMARK                         _______ _______ _______ _____ _____    ______ ____
ROOT
ATOM      1  C   UNL     1     -27.936 -15.062  13.535  0.00  0.00    +0.044 C 
ATOM      2  C   UNL     1     -29.235 -14.520  14.055  0.00  0.00    -0.049 A 
ATOM      3  C   UNL     1     -30.198 -14.031  13.168  0.00  0.00    +0.007 A 
ATOM      4  C   UNL     1     -31.392 -13.493  13.650  0.00  0.00    +0.047 A 
ATOM      5  C   UNL     1     -31.640 -13.421  15.036  0.00  0.00    +0.135 A 
ATOM      6  C   UNL     1     -30.661 -13.898  15.942  0.00  0.00    +0.101 A 
ATOM      7  C   UNL     1     -29.462 -14.437  15.435  0.00  0.00    +0.022 A 
ENDROOT
BRANCH   6   8
ATOM      8  C   UNL     1     -30.858 -13.842  17.414  0.00  0.00    +0.340 C 
ATOM      9  O   UNL     1     -29.877 -13.750  18.199  0.00  0.00    -0.245 OA
BRANCH   8  10
ATOM     10  O   UNL     1     -32.144 -13.891  17.948  0.00  0.00    -0.477 OA
ATOM     11  H   UNL     1     -32.949 -13.616  17.397  0.00  0.00    +0.295 HD
ENDBRANCH   8  10
ENDBRANCH   6   8
BRANCH   5  12
ATOM     12  O   UNL     1     -32.839 -12.884  15.532  0.00  0.00    -0.487 OA
BRANCH  12  13
ATOM     13  C   UNL     1     -33.708 -12.016  14.810  0.00  0.00    +0.264 C 
BRANCH  13  14
ATOM     14  C   UNL     1     -33.939 -10.772  15.616  0.00  0.00    -0.009 A 
ATOM     15  C   UNL     1     -33.984 -10.835  17.017  0.00  0.00    +0.008 A 
ATOM     16  C   UNL     1     -34.241  -9.684  17.766  0.00  0.00    +0.022 A 
ATOM     17  C   UNL     1     -34.468  -8.461  17.125  0.00  0.00    +0.059 A 
ATOM     18 CL   UNL     1     -34.790  -7.035  18.101  0.00  0.00    -0.082 Cl
ATOM     19  C   UNL     1     -34.443  -8.394  15.722  0.00  0.00    +0.060 A 
ATOM     20 CL   UNL     1     -34.737  -6.880  14.876  0.00  0.00    -0.082 Cl
ATOM     21  C   UNL     1     -34.185  -9.550  14.973  0.00  0.00    +0.028 A 
ENDBRANCH  13  14
ENDBRANCH  12  13
ENDBRANCH   5  12
TORSDOF 5
ENDMDL
MODEL 9
REMARK VINA RESULT:    -2.495      3.494      6.441
REMARK INTER + INTRA:          -4.551
REMARK INTER:                  -3.456
REMARK INTRA:                  -1.094
REMARK UNBOUND:                -1.400
REMARK  Name = 
REMARK  6 active torsions:
REMARK  status: ('A' for Active; 'I' for Inactive)
REMARK    1  A    between atoms: C_1  and  C_2
REMARK    2  A    between atoms: C_5  and  O_6
REMARK    3  A    between atoms: O_6  and  C_7
REMARK    4  A    between atoms: C_7  and  C_8
REMARK    5  A    between atoms: C_16  and  C_18
REMARK    6  A    between atoms: C_18  and  O_20
REMARK                            x       y       z     vdW  Elec       q    Type
REMARK                         _______ _______ _______ _____ _____    ______ ____
ROOT
ATOM      1  C   UNL     1     -30.655  -9.564  22.063  0.00  0.00    +0.044 C 
ATOM      2  C   UNL     1     -30.564 -10.675  21.057  0.00  0.00    -0.049 A 
ATOM      3  C   UNL     1     -31.711 -11.384  20.688  0.00  0.00    +0.007 A 
ATOM      4  C   UNL     1     -31.624 -12.440  19.781  0.00  0.00    +0.047 A 
ATOM      5  C   UNL     1     -30.382 -12.818  19.233  0.00  0.00    +0.135 A 
ATOM      6  C   UNL     1     -29.213 -12.115  19.616  0.00  0.00    +0.101 A 
ATOM      7  C   UNL     1     -29.321 -11.052  20.534  0.00  0.00    +0.022 A 
ENDROOT
BRANCH   6   8
ATOM      8  C   UNL     1     -27.872 -12.470  19.081  0.00  0.00    +0.340 C 
ATOM      9  O   UNL     1     -27.020 -11.579  18.817  0.00  0.00    -0.245 OA
BRANCH   8  10
ATOM     10  O   UNL     1     -27.538 -13.804  18.864  0.00  0.00    -0.477 OA
ATOM     11  H   UNL     1     -27.168 -14.110  17.971  0.00  0.00    +0.295 HD
ENDBRANCH   8  10
ENDBRANCH   6   8
BRANCH   5  12
ATOM     12  O   UNL     1     -30.283 -13.878  18.317  0.00  0.00    -0.487 OA
BRANCH  12  13
ATOM     13  C   UNL     1     -31.259 -14.199  17.330  0.00  0.00    +0.264 C 
BRANCH  13  14
ATOM     14  C   UNL     1     -30.593 -14.273  15.988  0.00  0.00    -0.009 A 
ATOM     15  C   UNL     1     -29.254 -14.678  15.884  0.00  0.00    +0.008 A 
ATOM     16  C   UNL     1     -28.621 -14.706  14.639  0.00  0.00    +0.022 A 
ATOM     17  C   UNL     1     -29.313 -14.316  13.486  0.00  0.00    +0.059 A 
ATOM     18 CL   UNL     1     -28.482 -14.363  11.938  0.00  0.00    -0.082 Cl
ATOM     19  C   UNL     1     -30.648 -13.891  13.586  0.00  0.00    +0.060 A 
ATOM     20 CL   UNL     1     -31.550 -13.381  12.164  0.00  0.00    -0.082 Cl
ATOM     21  C   UNL     1     -31.280 -13.864  14.835  0.00  0.00    +0.028 A 
ENDBRANCH  13  14
ENDBRANCH  12  13
ENDBRANCH   5  12
TORSDOF 5
ENDMDL
