MODEL 1
REMARK VINA RESULT:    -4.600      0.000      0.000
REMARK INTER + INTRA:          -5.158
REMARK INTER:                  -5.138
REMARK INTRA:                  -0.019
REMARK UNBOUND:                -0.019
REMARK  Name = 
REMARK  4 active torsions:
REMARK  status: ('A' for Active; 'I' for Inactive)
REMARK    1  A    between atoms: C_1  and  C_2
REMARK    2  A    between atoms: C_5  and  N_9
REMARK    3  A    between atoms: C_17  and  S_20
REMARK    4  A    between atoms: S_20  and  C_21
REMARK                            x       y       z     vdW  Elec       q    Type
REMARK                         _______ _______ _______ _____ _____    ______ ____
ROOT
ATOM      1  N   UNL     1     -31.171 -13.466  17.835  0.00  0.00    -0.299 N 
ATOM      2  C   UNL     1     -30.218 -13.038  18.824  0.00  0.00    +0.134 A 
ATOM      3  N   UNL     1     -28.938 -13.500  18.758  0.00  0.00    -0.220 NA
ATOM      4  C   UNL     1     -28.011 -13.169  19.691  0.00  0.00    +0.223 A 
ATOM      5  N   UNL     1     -28.348 -12.368  20.732  0.00  0.00    -0.235 NA
ATOM      6  C   UNL     1     -29.608 -11.876  20.857  0.00  0.00    +0.076 A 
ATOM      7  C   UNL     1     -29.925 -11.043  21.935  0.00  0.00    +0.030 A 
ATOM      8  C   UNL     1     -31.212 -10.518  22.061  0.00  0.00    +0.029 A 
ATOM      9  C   UNL     1     -32.194 -10.819  21.109  0.00  0.00    +0.089 A 
ATOM     10  C   UNL     1     -31.882 -11.648  20.022  0.00  0.00    +0.040 A 
ATOM     11  C   UNL     1     -30.591 -12.197  19.894  0.00  0.00    +0.042 A 
ATOM     12  H   UNL     1     -32.140 -13.695  18.148  0.00  0.00    +0.154 HD
ENDROOT
BRANCH   1  17
ATOM     13  C   UNL     1     -29.731 -14.556  12.367  0.00  0.00    +0.047 C 
ATOM     14  C   UNL     1     -30.122 -14.296  13.794  0.00  0.00    -0.015 A 
ATOM     15  C   UNL     1     -29.480 -14.976  14.839  0.00  0.00    +0.008 A 
ATOM     16  C   UNL     1     -29.823 -14.715  16.168  0.00  0.00    +0.024 A 
ATOM     17  C   UNL     1     -30.817 -13.768  16.473  0.00  0.00    +0.035 A 
ATOM     18  C   UNL     1     -31.433 -13.064  15.428  0.00  0.00    +0.062 A 
ATOM     19  C   UNL     1     -31.091 -13.325  14.096  0.00  0.00    +0.128 A 
ATOM     20  F   UNL     1     -31.701 -12.628  13.105  0.00  0.00    -0.205 F 
ENDBRANCH   1  17
BRANCH   9  21
ATOM     21  S   UNL     1     -33.807 -10.126  21.252  0.00  0.00    -0.006 S 
ATOM     22  C   UNL     1     -33.698  -8.541  22.050  0.00  0.00    +0.200 C 
ATOM     23  O   UNL     1     -34.411  -9.962  19.885  0.00  0.00    -0.170 OA
ATOM     24  O   UNL     1     -34.687 -11.036  22.061  0.00  0.00    -0.170 OA
ENDBRANCH   9  21
TORSDOF 2
ENDMDL
MODEL 2
REMARK VINA RESULT:    -4.433      3.877      4.820
REMARK INTER + INTRA:          -4.971
REMARK INTER:                  -4.848
REMARK INTRA:                  -0.123
REMARK UNBOUND:                -0.019
REMARK  Name = 
REMARK  4 active torsions:
REMARK  status: ('A' for Active; 'I' for Inactive)
REMARK    1  A    between atoms: C_1  and  C_2
REMARK    2  A    between atoms: C_5  and  N_9
REMARK    3  A    between atoms: C_17  and  S_20
REMARK    4  A    between atoms: S_20  and  C_21
REMARK                            x       y       z     vdW  Elec       q    Type
REMARK                         _______ _______ _______ _____ _____    ______ ____
ROOT
ATOM      1  N   UNL     1     -29.759 -12.048  17.093  0.00  0.00    -0.299 N 
ATOM      2  C   UNL     1     -30.309 -11.979  18.420  0.00  0.00    +0.134 A 
ATOM      3  N   UNL     1     -31.572 -11.500  18.592  0.00  0.00    -0.220 NA
ATOM      4  C   UNL     1     -32.124 -11.365  19.824  0.00  0.00    +0.223 A 
ATOM      5  N   UNL     1     -31.412 -11.700  20.929  0.00  0.00    -0.235 NA
ATOM      6  C   UNL     1     -30.146 -12.182  20.827  0.00  0.00    +0.076 A 
ATOM      7  C   UNL     1     -29.440 -12.529  21.982  0.00  0.00    +0.030 A 
ATOM      8  C   UNL     1     -28.145 -13.042  21.885  0.00  0.00    +0.029 A 
ATOM      9  C   UNL     1     -27.546 -13.215  20.631  0.00  0.00    +0.089 A 
ATOM     10  C   UNL     1     -28.250 -12.875  19.468  0.00  0.00    +0.040 A 
ATOM     11  C   UNL     1     -29.551 -12.340  19.555  0.00  0.00    +0.042 A 
ATOM     12  H   UNL     1     -28.759 -11.777  16.957  0.00  0.00    +0.154 HD
ENDROOT
BRANCH   1  17
ATOM     13  C   UNL     1     -32.898 -12.940  12.349  0.00  0.00    +0.047 C 
ATOM     14  C   UNL     1     -32.096 -12.725  13.601  0.00  0.00    -0.015 A 
ATOM     15  C   UNL     1     -31.137 -13.670  13.998  0.00  0.00    +0.008 A 
ATOM     16  C   UNL     1     -30.371 -13.459  15.147  0.00  0.00    +0.024 A 
ATOM     17  C   UNL     1     -30.552 -12.298  15.919  0.00  0.00    +0.035 A 
ATOM     18  C   UNL     1     -31.487 -11.339  15.501  0.00  0.00    +0.062 A 
ATOM     19  C   UNL     1     -32.255 -11.549  14.351  0.00  0.00    +0.128 A 
ATOM     20  F   UNL     1     -33.151 -10.604  13.969  0.00  0.00    -0.205 F 
ENDBRANCH   1  17
BRANCH   9  21
ATOM     21  S   UNL     1     -25.925 -13.896  20.511  0.00  0.00    -0.006 S 
ATOM     22  C   UNL     1     -25.485 -14.644  22.062  0.00  0.00    +0.200 C 
ATOM     23  O   UNL     1     -25.892 -14.933  19.423  0.00  0.00    -0.170 OA
ATOM     24  O   UNL     1     -24.938 -12.814  20.177  0.00  0.00    -0.170 OA
ENDBRANCH   9  21
TORSDOF 2
ENDMDL
MODEL 3
REMARK VINA RESULT:    -4.203      3.116      5.478
REMARK INTER + INTRA:          -4.714
REMARK INTER:                  -4.300
REMARK INTRA:                  -0.414
REMARK UNBOUND:                -0.019
REMARK  Name = 
REMARK  4 active torsions:
REMARK  status: ('A' for Active; 'I' for Inactive)
REMARK    1  A    between atoms: C_1  and  C_2
REMARK    2  A    between atoms: C_5  and  N_9
REMARK    3  A    between atoms: C_17  and  S_20
REMARK    4  A    between atoms: S_20  and  C_21
REMARK                            x       y       z     vdW  Elec       q    Type
REMARK                         _______ _______ _______ _____ _____    ______ ____
ROOT
ATOM      1  N   UNL     1     -29.488 -11.683  19.040  0.00  0.00    -0.299 N 
ATOM      2  C   UNL     1     -30.523 -12.259  18.224  0.00  0.00    +0.134 A 
ATOM      3  N   UNL     1     -30.294 -13.448  17.601  0.00  0.00    -0.220 NA
ATOM      4  C   UNL     1     -31.215 -14.013  16.780  0.00  0.00    +0.223 A 
ATOM      5  N   UNL     1     -32.396 -13.388  16.550  0.00  0.00    -0.235 NA
ATOM      6  C   UNL     1     -32.685 -12.198  17.138  0.00  0.00    +0.076 A 
ATOM      7  C   UNL     1     -33.915 -11.581  16.891  0.00  0.00    +0.030 A 
ATOM      8  C   UNL     1     -34.228 -10.368  17.506  0.00  0.00    +0.029 A 
ATOM      9  C   UNL     1     -33.314  -9.761  18.376  0.00  0.00    +0.089 A 
ATOM     10  C   UNL     1     -32.081 -10.376  18.634  0.00  0.00    +0.040 A 
ATOM     11  C   UNL     1     -31.748 -11.593  18.005  0.00  0.00    +0.042 A 
ATOM     12  H   UNL     1     -29.330 -10.652  18.985  0.00  0.00    +0.154 HD
ENDROOT
BRANCH   1  17
ATOM     13  C   UNL     1     -25.643 -14.723  22.062  0.00  0.00    +0.047 C 
ATOM     14  C   UNL     1     -26.654 -13.954  21.261  0.00  0.00    -0.015 A 
ATOM     15  C   UNL     1     -28.007 -13.963  21.633  0.00  0.00    +0.008 A 
ATOM     16  C   UNL     1     -28.945 -13.226  20.905  0.00  0.00    +0.024 A 
ATOM     17  C   UNL     1     -28.544 -12.468  19.791  0.00  0.00    +0.035 A 
ATOM     18  C   UNL     1     -27.186 -12.433  19.443  0.00  0.00    +0.062 A 
ATOM     19  C   UNL     1     -26.246 -13.171  20.170  0.00  0.00    +0.128 A 
ATOM     20  F   UNL     1     -24.938 -13.117  19.812  0.00  0.00    -0.205 F 
ENDBRANCH   1  17
BRANCH   9  21
ATOM     21  S   UNL     1     -33.727  -8.248  19.178  0.00  0.00    -0.006 S 
ATOM     22  C   UNL     1     -34.931  -7.374  18.204  0.00  0.00    +0.200 C 
ATOM     23  O   UNL     1     -34.292  -8.535  20.541  0.00  0.00    -0.170 OA
ATOM     24  O   UNL     1     -32.497  -7.399  19.336  0.00  0.00    -0.170 OA
ENDBRANCH   9  21
TORSDOF 2
ENDMDL
MODEL 4
REMARK VINA RESULT:    -4.165      4.368      6.639
REMARK INTER + INTRA:          -4.672
REMARK INTER:                  -4.248
REMARK INTRA:                  -0.424
REMARK UNBOUND:                -0.019
REMARK  Name = 
REMARK  4 active torsions:
REMARK  status: ('A' for Active; 'I' for Inactive)
REMARK    1  A    between atoms: C_1  and  C_2
REMARK    2  A    between atoms: C_5  and  N_9
REMARK    3  A    between atoms: C_17  and  S_20
REMARK    4  A    between atoms: S_20  and  C_21
REMARK                            x       y       z     vdW  Elec       q    Type
REMARK                         _______ _______ _______ _____ _____    ______ ____
ROOT
ATOM      1  N   UNL     1     -31.439 -12.179  17.821  0.00  0.00    -0.299 N 
ATOM      2  C   UNL     1     -32.023 -10.865  17.759  0.00  0.00    +0.134 A 
ATOM      3  N   UNL     1     -31.848 -10.010  18.804  0.00  0.00    -0.220 NA
ATOM      4  C   UNL     1     -32.417  -8.779  18.822  0.00  0.00    +0.223 A 
ATOM      5  N   UNL     1     -33.193  -8.372  17.787  0.00  0.00    -0.235 NA
ATOM      6  C   UNL     1     -33.408  -9.178  16.715  0.00  0.00    +0.076 A 
ATOM      7  C   UNL     1     -34.204  -8.728  15.657  0.00  0.00    +0.030 A 
ATOM      8  C   UNL     1     -34.416  -9.543  14.543  0.00  0.00    +0.029 A 
ATOM      9  C   UNL     1     -33.831 -10.814  14.476  0.00  0.00    +0.089 A 
ATOM     10  C   UNL     1     -33.027 -11.269  15.530  0.00  0.00    +0.040 A 
ATOM     11  C   UNL     1     -32.820 -10.462  16.667  0.00  0.00    +0.042 A 
ATOM     12  H   UNL     1     -32.000 -12.986  17.470  0.00  0.00    +0.154 HD
ENDROOT
BRANCH   1  17
ATOM     13  C   UNL     1     -26.525 -13.439  20.544  0.00  0.00    +0.047 C 
ATOM     14  C   UNL     1     -27.805 -13.083  19.843  0.00  0.00    -0.015 A 
ATOM     15  C   UNL     1     -27.774 -12.416  18.609  0.00  0.00    +0.008 A 
ATOM     16  C   UNL     1     -28.962 -12.108  17.942  0.00  0.00    +0.024 A 
ATOM     17  C   UNL     1     -30.203 -12.464  18.500  0.00  0.00    +0.035 A 
ATOM     18  C   UNL     1     -30.230 -13.162  19.717  0.00  0.00    +0.062 A 
ATOM     19  C   UNL     1     -29.040 -13.470  20.386  0.00  0.00    +0.128 A 
ATOM     20  F   UNL     1     -29.095 -14.147  21.561  0.00  0.00    -0.205 F 
ENDBRANCH   1  17
BRANCH   9  21
ATOM     21  S   UNL     1     -34.071 -11.824  13.053  0.00  0.00    -0.006 S 
ATOM     22  C   UNL     1     -32.508 -12.495  12.536  0.00  0.00    +0.200 C 
ATOM     23  O   UNL     1     -35.017 -12.945  13.381  0.00  0.00    -0.170 OA
ATOM     24  O   UNL     1     -34.660 -11.007  11.938  0.00  0.00    -0.170 OA
ENDBRANCH   9  21
TORSDOF 2
ENDMDL
MODEL 5
REMARK VINA RESULT:    -4.125      3.495      5.514
REMARK INTER + INTRA:          -4.626
REMARK INTER:                  -4.220
REMARK INTRA:                  -0.406
REMARK UNBOUND:                -0.019
REMARK  Name = 
REMARK  4 active torsions:
REMARK  status: ('A' for Active; 'I' for Inactive)
REMARK    1  A    between atoms: C_1  and  C_2
REMARK    2  A    between atoms: C_5  and  N_9
REMARK    3  A    between atoms: C_17  and  S_20
REMARK    4  A    between atoms: S_20  and  C_21
REMARK                            x       y       z     vdW  Elec       q    Type
REMARK                         _______ _______ _______ _____ _____    ______ ____
ROOT
ATOM      1  N   UNL     1     -29.739 -10.411  18.440  0.00  0.00    -0.299 N 
ATOM      2  C   UNL     1     -30.626 -10.685  17.341  0.00  0.00    +0.134 A 
ATOM      3  N   UNL     1     -30.282 -11.637  16.431  0.00  0.00    -0.220 NA
ATOM      4  C   UNL     1     -31.056 -11.902  15.348  0.00  0.00    +0.223 A 
ATOM      5  N   UNL     1     -32.200 -11.205  15.142  0.00  0.00    -0.235 NA
ATOM      6  C   UNL     1     -32.598 -10.240  16.011  0.00  0.00    +0.076 A 
ATOM      7  C   UNL     1     -33.788  -9.543  15.778  0.00  0.00    +0.030 A 
ATOM      8  C   UNL     1     -34.214  -8.563  16.676  0.00  0.00    +0.029 A 
ATOM      9  C   UNL     1     -33.455  -8.272  17.817  0.00  0.00    +0.089 A 
ATOM     10  C   UNL     1     -32.265  -8.971  18.060  0.00  0.00    +0.040 A 
ATOM     11  C   UNL     1     -31.816  -9.950  17.152  0.00  0.00    +0.042 A 
ATOM     12  H   UNL     1     -29.594  -9.416  18.723  0.00  0.00    +0.154 HD
ENDROOT
BRANCH   1  17
ATOM     13  C   UNL     1     -26.484 -14.498  20.860  0.00  0.00    +0.047 C 
ATOM     14  C   UNL     1     -27.321 -13.412  20.246  0.00  0.00    -0.015 A 
ATOM     15  C   UNL     1     -26.778 -12.572  19.262  0.00  0.00    +0.008 A 
ATOM     16  C   UNL     1     -27.563 -11.579  18.669  0.00  0.00    +0.024 A 
ATOM     17  C   UNL     1     -28.905 -11.411  19.053  0.00  0.00    +0.035 A 
ATOM     18  C   UNL     1     -29.455 -12.275  20.011  0.00  0.00    +0.062 A 
ATOM     19  C   UNL     1     -28.670 -13.269  20.606  0.00  0.00    +0.128 A 
ATOM     20  F   UNL     1     -29.228 -14.092  21.529  0.00  0.00    -0.205 F 
ENDBRANCH   1  17
BRANCH   9  21
ATOM     21  S   UNL     1     -34.015  -7.060  18.966  0.00  0.00    -0.006 S 
ATOM     22  C   UNL     1     -32.611  -6.264  19.713  0.00  0.00    +0.200 C 
ATOM     23  O   UNL     1     -34.855  -6.037  18.254  0.00  0.00    -0.170 OA
ATOM     24  O   UNL     1     -34.849  -7.711  20.032  0.00  0.00    -0.170 OA
ENDBRANCH   9  21
TORSDOF 2
ENDMDL
MODEL 6
REMARK VINA RESULT:    -4.036      3.670      5.695
REMARK INTER + INTRA:          -4.528
REMARK INTER:                  -4.130
REMARK INTRA:                  -0.398
REMARK UNBOUND:                -0.019
REMARK  Name = 
REMARK  4 active torsions:
REMARK  status: ('A' for Active; 'I' for Inactive)
REMARK    1  A    between atoms: C_1  and  C_2
REMARK    2  A    between atoms: C_5  and  N_9
REMARK    3  A    between atoms: C_17  and  S_20
REMARK    4  A    between atoms: S_20  and  C_21
REMARK                            x       y       z     vdW  Elec       q    Type
REMARK                         _______ _______ _______ _____ _____    ______ ____
ROOT
ATOM      1  N   UNL     1     -30.563 -12.139  19.573  0.00  0.00    -0.299 N 
ATOM      2  C   UNL     1     -30.959 -10.781  19.837  0.00  0.00    +0.134 A 
ATOM      3  N   UNL     1     -30.453 -10.141  20.927  0.00  0.00    -0.220 NA
ATOM      4  C   UNL     1     -30.829  -8.879  21.252  0.00  0.00    +0.223 A 
ATOM      5  N   UNL     1     -31.740  -8.222  20.492  0.00  0.00    -0.235 NA
ATOM      6  C   UNL     1     -32.284  -8.805  19.392  0.00  0.00    +0.076 A 
ATOM      7  C   UNL     1     -33.213  -8.101  18.621  0.00  0.00    +0.030 A 
ATOM      8  C   UNL     1     -33.764  -8.686  17.479  0.00  0.00    +0.029 A 
ATOM      9  C   UNL     1     -33.388  -9.980  17.097  0.00  0.00    +0.089 A 
ATOM     10  C   UNL     1     -32.452 -10.690  17.862  0.00  0.00    +0.040 A 
ATOM     11  C   UNL     1     -31.903 -10.116  19.026  0.00  0.00    +0.042 A 
ATOM     12  H   UNL     1     -31.291 -12.812  19.247  0.00  0.00    +0.154 HD
ENDROOT
BRANCH   1  17
ATOM     13  C   UNL     1     -25.327 -14.124  20.917  0.00  0.00    +0.047 C 
ATOM     14  C   UNL     1     -26.698 -13.629  20.551  0.00  0.00    -0.015 A 
ATOM     15  C   UNL     1     -27.829 -14.122  21.219  0.00  0.00    +0.008 A 
ATOM     16  C   UNL     1     -29.103 -13.643  20.899  0.00  0.00    +0.024 A 
ATOM     17  C   UNL     1     -29.264 -12.663  19.903  0.00  0.00    +0.035 A 
ATOM     18  C   UNL     1     -28.128 -12.147  19.262  0.00  0.00    +0.062 A 
ATOM     19  C   UNL     1     -26.853 -12.627  19.581  0.00  0.00    +0.128 A 
ATOM     20  F   UNL     1     -25.771 -12.109  18.946  0.00  0.00    -0.205 F 
ENDBRANCH   1  17
BRANCH   9  21
ATOM     21  S   UNL     1     -34.058 -10.700  15.635  0.00  0.00    -0.006 S 
ATOM     22  C   UNL     1     -32.746 -11.433  14.685  0.00  0.00    +0.200 C 
ATOM     23  O   UNL     1     -35.062 -11.756  16.006  0.00  0.00    -0.170 OA
ATOM     24  O   UNL     1     -34.746  -9.647  14.814  0.00  0.00    -0.170 OA
ENDBRANCH   9  21
TORSDOF 2
ENDMDL
MODEL 7
REMARK VINA RESULT:    -3.841      3.977      5.070
REMARK INTER + INTRA:          -4.309
REMARK INTER:                  -4.222
REMARK INTRA:                  -0.088
REMARK UNBOUND:                -0.019
REMARK  Name = 
REMARK  4 active torsions:
REMARK  status: ('A' for Active; 'I' for Inactive)
REMARK    1  A    between atoms: C_1  and  C_2
REMARK    2  A    between atoms: C_5  and  N_9
REMARK    3  A    between atoms: C_17  and  S_20
REMARK    4  A    between atoms: S_20  and  C_21
REMARK                            x       y       z     vdW  Elec       q    Type
REMARK                         _______ _______ _______ _____ _____    ______ ____
ROOT
ATOM      1  N   UNL     1     -31.442 -10.548  16.847  0.00  0.00    -0.299 N 
ATOM      2  C   UNL     1     -31.865 -10.489  18.221  0.00  0.00    +0.134 A 
ATOM      3  N   UNL     1     -33.059  -9.910  18.525  0.00  0.00    -0.220 NA
ATOM      4  C   UNL     1     -33.485  -9.782  19.807  0.00  0.00    +0.223 A 
ATOM      5  N   UNL     1     -32.711 -10.225  20.829  0.00  0.00    -0.235 NA
ATOM      6  C   UNL     1     -31.508 -10.810  20.593  0.00  0.00    +0.076 A 
ATOM      7  C   UNL     1     -30.736 -11.267  21.666  0.00  0.00    +0.030 A 
ATOM      8  C   UNL     1     -29.507 -11.886  21.432  0.00  0.00    +0.029 A 
ATOM      9  C   UNL     1     -29.040 -12.056  20.123  0.00  0.00    +0.089 A 
ATOM     10  C   UNL     1     -29.811 -11.606  19.042  0.00  0.00    +0.040 A 
ATOM     11  C   UNL     1     -31.045 -10.964  19.267  0.00  0.00    +0.042 A 
ATOM     12  H   UNL     1     -30.438 -10.359  16.629  0.00  0.00    +0.154 HD
ENDROOT
BRANCH   1  17
ATOM     13  C   UNL     1     -35.062 -10.952  12.387  0.00  0.00    +0.047 C 
ATOM     14  C   UNL     1     -34.134 -10.865  13.565  0.00  0.00    -0.015 A 
ATOM     15  C   UNL     1     -33.191 -11.877  13.799  0.00  0.00    +0.008 A 
ATOM     16  C   UNL     1     -32.308 -11.784  14.879  0.00  0.00    +0.024 A 
ATOM     17  C   UNL     1     -32.356 -10.676  15.743  0.00  0.00    +0.035 A 
ATOM     18  C   UNL     1     -33.276  -9.649  15.486  0.00  0.00    +0.062 A 
ATOM     19  C   UNL     1     -34.161  -9.741  14.407  0.00  0.00    +0.128 A 
ATOM     20  F   UNL     1     -35.041  -8.732  14.181  0.00  0.00    -0.205 F 
ENDBRANCH   1  17
BRANCH   9  21
ATOM     21  S   UNL     1     -27.505 -12.869  19.830  0.00  0.00    -0.006 S 
ATOM     22  C   UNL     1     -27.040 -13.789  21.279  0.00  0.00    +0.200 C 
ATOM     23  O   UNL     1     -27.643 -13.805  18.662  0.00  0.00    -0.170 OA
ATOM     24  O   UNL     1     -26.440 -11.857  19.514  0.00  0.00    -0.170 OA
ENDBRANCH   9  21
TORSDOF 2
ENDMDL
MODEL 8
REMARK VINA RESULT:    -3.397      3.809      6.472
REMARK INTER + INTRA:          -3.814
REMARK INTER:                  -3.435
REMARK INTRA:                  -0.380
REMARK UNBOUND:                -0.019
REMARK  Name = 
REMARK  4 active torsions:
REMARK  status: ('A' for Active; 'I' for Inactive)
REMARK    1  A    between atoms: C_1  and  C_2
REMARK    2  A    between atoms: C_5  and  N_9
REMARK    3  A    between atoms: C_17  and  S_20
REMARK    4  A    between atoms: S_20  and  C_21
REMARK                            x       y       z     vdW  Elec       q    Type
REMARK                         _______ _______ _______ _____ _____    ______ ____
ROOT
ATOM      1  N   UNL     1     -29.615 -12.136  17.215  0.00  0.00    -0.299 N 
ATOM      2  C   UNL     1     -29.866 -12.965  16.066  0.00  0.00    +0.134 A 
ATOM      3  N   UNL     1     -29.013 -13.989  15.785  0.00  0.00    -0.220 NA
ATOM      4  C   UNL     1     -29.173 -14.771  14.689  0.00  0.00    +0.223 A 
ATOM      5  N   UNL     1     -30.196 -14.539  13.830  0.00  0.00    -0.235 NA
ATOM      6  C   UNL     1     -31.081 -13.532  14.051  0.00  0.00    +0.076 A 
ATOM      7  C   UNL     1     -32.133 -13.322  13.155  0.00  0.00    +0.030 A 
ATOM      8  C   UNL     1     -33.058 -12.302  13.384  0.00  0.00    +0.029 A 
ATOM      9  C   UNL     1     -32.940 -11.484  14.515  0.00  0.00    +0.089 A 
ATOM     10  C   UNL     1     -31.892 -11.693  15.422  0.00  0.00    +0.040 A 
ATOM     11  C   UNL     1     -30.943 -12.709  15.191  0.00  0.00    +0.042 A 
ATOM     12  H   UNL     1     -29.764 -11.107  17.124  0.00  0.00    +0.154 HD
ENDROOT
BRANCH   1  17
ATOM     13  C   UNL     1     -27.106 -13.969  22.062  0.00  0.00    +0.047 C 
ATOM     14  C   UNL     1     -27.762 -13.518  20.789  0.00  0.00    -0.015 A 
ATOM     15  C   UNL     1     -29.153 -13.618  20.636  0.00  0.00    +0.008 A 
ATOM     16  C   UNL     1     -29.769 -13.173  19.463  0.00  0.00    +0.024 A 
ATOM     17  C   UNL     1     -29.000 -12.621  18.422  0.00  0.00    +0.035 A 
ATOM     18  C   UNL     1     -27.614 -12.491  18.592  0.00  0.00    +0.062 A 
ATOM     19  C   UNL     1     -26.997 -12.937  19.765  0.00  0.00    +0.128 A 
ATOM     20  F   UNL     1     -25.654 -12.796  19.904  0.00  0.00    -0.205 F 
ENDBRANCH   1  17
BRANCH   9  21
ATOM     21  S   UNL     1     -34.130 -10.221  14.820  0.00  0.00    -0.006 S 
ATOM     22  C   UNL     1     -35.063 -10.630  16.277  0.00  0.00    +0.200 C 
ATOM     23  O   UNL     1     -33.431  -8.905  15.021  0.00  0.00    -0.170 OA
ATOM     24  O   UNL     1     -35.060 -10.098  13.646  0.00  0.00    -0.170 OA
ENDBRANCH   9  21
TORSDOF 2
ENDMDL
