MODEL 1
REMARK VINA RESULT:    -4.997      0.000      0.000
REMARK INTER + INTRA:          -7.036
REMARK INTER:                  -6.458
REMARK INTRA:                  -0.578
REMARK UNBOUND:                -0.578
REMARK  Name = 
REMARK  7 active torsions:
REMARK  status: ('A' for Active; 'I' for Inactive)
REMARK    1  A    between atoms: C_1  and  O_2
REMARK    2  A    between atoms: O_2  and  C_3
REMARK    3  A    between atoms: C_6  and  O_7
REMARK    4  A    between atoms: O_7  and  C_8
REMARK    5  A    between atoms: C_9  and  C_11
REMARK    6  A    between atoms: C_14  and  C_16
REMARK    7  A    between atoms: C_20  and  C_22
REMARK                            x       y       z     vdW  Elec       q    Type
REMARK                         _______ _______ _______ _____ _____    ______ ____
ROOT
ATOM      1  C   UNL     1     -30.997 -11.652  15.757  0.00  0.00    +0.082 A 
ATOM      2  C   UNL     1     -30.916 -10.286  16.039  0.00  0.00    +0.075 A 
ATOM      3  S   UNL     1     -30.123 -10.109  17.508  0.00  0.00    -0.075 S 
ATOM      4  C   UNL     1     -29.916 -11.766  17.739  0.00  0.00    +0.109 A 
ATOM      5  N   UNL     1     -30.450 -12.460  16.709  0.00  0.00    -0.239 NA
ENDROOT
BRANCH   1  10
ATOM      6  C   UNL     1     -33.602 -12.209  13.074  0.00  0.00    +0.121 A 
ATOM      7  C   UNL     1     -32.999 -13.210  12.296  0.00  0.00    +0.049 A 
ATOM      8  C   UNL     1     -31.750 -13.720  12.650  0.00  0.00    +0.050 A 
ATOM      9  C   UNL     1     -31.073 -13.242  13.788  0.00  0.00    +0.129 A 
ATOM     10  C   UNL     1     -31.664 -12.214  14.560  0.00  0.00    +0.046 A 
ATOM     11  C   UNL     1     -32.932 -11.724  14.201  0.00  0.00    +0.059 A 
BRANCH   6  13
ATOM     12  C   UNL     1     -35.062 -10.421  12.113  0.00  0.00    +0.277 C 
ATOM     13  O   UNL     1     -34.860 -11.671  12.764  0.00  0.00    -0.495 OA
ENDBRANCH   6  13
BRANCH   9  14
ATOM     14  O   UNL     1     -29.839 -13.780  14.187  0.00  0.00    -0.494 OA
ATOM     15  C   UNL     1     -29.346 -15.058  13.796  0.00  0.00    +0.277 C 
ENDBRANCH   9  14
ENDBRANCH   1  10
BRANCH   4  16
ATOM     16  C   UNL     1     -29.260 -12.406  18.903  0.00  0.00    +0.008 A 
ATOM     17  C   UNL     1     -30.018 -12.906  19.975  0.00  0.00    +0.010 A 
ATOM     18  C   UNL     1     -29.388 -13.496  21.071  0.00  0.00    +0.001 A 
ATOM     19  C   UNL     1     -27.998 -13.601  21.111  0.00  0.00    +0.013 A 
ATOM     20  C   UNL     1     -27.216 -13.121  20.047  0.00  0.00    +0.037 A 
ATOM     21  C   UNL     1     -27.857 -12.515  18.950  0.00  0.00    +0.023 A 
BRANCH  20  22
ATOM     22  C   UNL     1     -25.738 -13.238  20.104  0.00  0.00    +0.242 C 
ATOM     23  N   UNL     1     -25.098 -14.266  20.866  0.00  0.00    -0.325 N 
ATOM     24  O   UNL     1     -25.022 -12.406  19.483  0.00  0.00    -0.270 OA
ATOM     25  H   UNL     1     -24.058 -14.361  20.839  0.00  0.00    +0.145 HD
ATOM     26  H   UNL     1     -25.630 -14.875  21.524  0.00  0.00    +0.145 HD
ENDBRANCH  20  22
ENDBRANCH   4  16
TORSDOF 5
ENDMDL
MODEL 2
REMARK VINA RESULT:    -4.940      2.651      8.244
REMARK INTER + INTRA:          -6.962
REMARK INTER:                  -6.321
REMARK INTRA:                  -0.641
REMARK UNBOUND:                -0.578
REMARK  Name = 
REMARK  7 active torsions:
REMARK  status: ('A' for Active; 'I' for Inactive)
REMARK    1  A    between atoms: C_1  and  O_2
REMARK    2  A    between atoms: O_2  and  C_3
REMARK    3  A    between atoms: C_6  and  O_7
REMARK    4  A    between atoms: O_7  and  C_8
REMARK    5  A    between atoms: C_9  and  C_11
REMARK    6  A    between atoms: C_14  and  C_16
REMARK    7  A    between atoms: C_20  and  C_22
REMARK                            x       y       z     vdW  Elec       q    Type
REMARK                         _______ _______ _______ _____ _____    ______ ____
ROOT
ATOM      1  C   UNL     1     -30.169 -13.195  17.102  0.00  0.00    +0.082 A 
ATOM      2  C   UNL     1     -29.825 -14.178  16.171  0.00  0.00    +0.075 A 
ATOM      3  S   UNL     1     -30.776 -13.948  14.806  0.00  0.00    -0.075 S 
ATOM      4  C   UNL     1     -31.592 -12.619  15.444  0.00  0.00    +0.109 A 
ATOM      5  N   UNL     1     -31.153 -12.346  16.693  0.00  0.00    -0.239 NA
ENDROOT
BRANCH   1  10
ATOM      6  C   UNL     1     -27.558 -13.068  19.834  0.00  0.00    +0.121 A 
ATOM      7  C   UNL     1     -28.351 -12.881  20.977  0.00  0.00    +0.049 A 
ATOM      8  C   UNL     1     -29.740 -12.813  20.867  0.00  0.00    +0.050 A 
ATOM      9  C   UNL     1     -30.369 -12.929  19.612  0.00  0.00    +0.129 A 
ATOM     10  C   UNL     1     -29.573 -13.088  18.455  0.00  0.00    +0.046 A 
ATOM     11  C   UNL     1     -28.175 -13.174  18.585  0.00  0.00    +0.059 A 
BRANCH   6  13
ATOM     12  C   UNL     1     -25.442 -14.166  20.590  0.00  0.00    +0.277 C 
ATOM     13  O   UNL     1     -26.158 -13.150  19.895  0.00  0.00    -0.495 OA
ENDBRANCH   6  13
BRANCH   9  14
ATOM     14  O   UNL     1     -31.768 -12.913  19.490  0.00  0.00    -0.494 OA
ATOM     15  C   UNL     1     -32.614 -11.878  19.979  0.00  0.00    +0.277 C 
ENDBRANCH   9  14
ENDBRANCH   1  10
BRANCH   4  16
ATOM     16  C   UNL     1     -32.656 -11.844  14.764  0.00  0.00    +0.008 A 
ATOM     17  C   UNL     1     -33.336 -12.372  13.653  0.00  0.00    +0.010 A 
ATOM     18  C   UNL     1     -34.328 -11.629  13.013  0.00  0.00    +0.001 A 
ATOM     19  C   UNL     1     -34.661 -10.355  13.474  0.00  0.00    +0.013 A 
ATOM     20  C   UNL     1     -34.006  -9.808  14.590  0.00  0.00    +0.037 A 
ATOM     21  C   UNL     1     -32.997 -10.558  15.223  0.00  0.00    +0.023 A 
BRANCH  20  22
ATOM     22  C   UNL     1     -34.368  -8.451  15.068  0.00  0.00    +0.242 C 
ATOM     23  N   UNL     1     -33.963  -7.978  16.356  0.00  0.00    -0.325 N 
ATOM     24  O   UNL     1     -35.062  -7.696  14.334  0.00  0.00    -0.270 OA
ATOM     25  H   UNL     1     -34.181  -6.997  16.641  0.00  0.00    +0.145 HD
ATOM     26  H   UNL     1     -33.533  -8.611  17.064  0.00  0.00    +0.145 HD
ENDBRANCH  20  22
ENDBRANCH   4  16
TORSDOF 5
ENDMDL
MODEL 3
REMARK VINA RESULT:    -4.870      1.122      2.675
REMARK INTER + INTRA:          -6.872
REMARK INTER:                  -6.378
REMARK INTRA:                  -0.494
REMARK UNBOUND:                -0.578
REMARK  Name = 
REMARK  7 active torsions:
REMARK  status: ('A' for Active; 'I' for Inactive)
REMARK    1  A    between atoms: C_1  and  O_2
REMARK    2  A    between atoms: O_2  and  C_3
REMARK    3  A    between atoms: C_6  and  O_7
REMARK    4  A    between atoms: O_7  and  C_8
REMARK    5  A    between atoms: C_9  and  C_11
REMARK    6  A    between atoms: C_14  and  C_16
REMARK    7  A    between atoms: C_20  and  C_22
REMARK                            x       y       z     vdW  Elec       q    Type
REMARK                         _______ _______ _______ _____ _____    ______ ____
ROOT
ATOM      1  C   UNL     1     -31.041 -11.489  15.911  0.00  0.00    +0.082 A 
ATOM      2  C   UNL     1     -30.756 -10.142  16.149  0.00  0.00    +0.075 A 
ATOM      3  S   UNL     1     -29.868 -10.047  17.571  0.00  0.00    -0.075 S 
ATOM      4  C   UNL     1     -29.881 -11.711  17.839  0.00  0.00    +0.109 A 
ATOM      5  N   UNL     1     -30.561 -12.345  16.857  0.00  0.00    -0.239 NA
ENDROOT
BRANCH   1  10
ATOM      6  C   UNL     1     -31.972 -13.399  12.784  0.00  0.00    +0.121 A 
ATOM      7  C   UNL     1     -33.293 -12.974  12.574  0.00  0.00    +0.049 A 
ATOM      8  C   UNL     1     -33.882 -12.051  13.439  0.00  0.00    +0.050 A 
ATOM      9  C   UNL     1     -33.165 -11.532  14.534  0.00  0.00    +0.129 A 
ATOM     10  C   UNL     1     -31.843 -11.978  14.766  0.00  0.00    +0.046 A 
ATOM     11  C   UNL     1     -31.257 -12.895  13.874  0.00  0.00    +0.059 A 
BRANCH   6  13
ATOM     12  C   UNL     1     -30.132 -15.009  12.260  0.00  0.00    +0.277 C 
ATOM     13  O   UNL     1     -31.334 -14.319  11.938  0.00  0.00    -0.495 OA
ENDBRANCH   6  13
BRANCH   9  14
ATOM     14  O   UNL     1     -33.725 -10.565  15.384  0.00  0.00    -0.494 OA
ATOM     15  C   UNL     1     -34.820 -10.794  16.265  0.00  0.00    +0.277 C 
ENDBRANCH   9  14
ENDBRANCH   1  10
BRANCH   4  16
ATOM     16  C   UNL     1     -29.257 -12.411  18.986  0.00  0.00    +0.008 A 
ATOM     17  C   UNL     1     -30.043 -12.931  20.028  0.00  0.00    +0.010 A 
ATOM     18  C   UNL     1     -29.444 -13.579  21.108  0.00  0.00    +0.001 A 
ATOM     19  C   UNL     1     -28.057 -13.722  21.162  0.00  0.00    +0.013 A 
ATOM     20  C   UNL     1     -27.248 -13.223  20.127  0.00  0.00    +0.037 A 
ATOM     21  C   UNL     1     -27.858 -12.559  19.047  0.00  0.00    +0.023 A 
BRANCH  20  22
ATOM     22  C   UNL     1     -25.774 -13.380  20.200  0.00  0.00    +0.242 C 
ATOM     23  N   UNL     1     -25.166 -14.324  21.086  0.00  0.00    -0.325 N 
ATOM     24  O   UNL     1     -25.035 -12.659  19.477  0.00  0.00    -0.270 OA
ATOM     25  H   UNL     1     -24.130 -14.456  21.073  0.00  0.00    +0.145 HD
ATOM     26  H   UNL     1     -25.715 -14.825  21.817  0.00  0.00    +0.145 HD
ENDBRANCH  20  22
ENDBRANCH   4  16
TORSDOF 5
ENDMDL
MODEL 4
REMARK VINA RESULT:    -4.391      1.411      3.068
REMARK INTER + INTRA:          -6.253
REMARK INTER:                  -6.053
REMARK INTRA:                  -0.201
REMARK UNBOUND:                -0.578
REMARK  Name = 
REMARK  7 active torsions:
REMARK  status: ('A' for Active; 'I' for Inactive)
REMARK    1  A    between atoms: C_1  and  O_2
REMARK    2  A    between atoms: O_2  and  C_3
REMARK    3  A    between atoms: C_6  and  O_7
REMARK    4  A    between atoms: O_7  and  C_8
REMARK    5  A    between atoms: C_9  and  C_11
REMARK    6  A    between atoms: C_14  and  C_16
REMARK    7  A    between atoms: C_20  and  C_22
REMARK                            x       y       z     vdW  Elec       q    Type
REMARK                         _______ _______ _______ _____ _____    ______ ____
ROOT
ATOM      1  C   UNL     1     -31.848 -11.153  15.871  0.00  0.00    +0.082 A 
ATOM      2  C   UNL     1     -32.148  -9.810  16.111  0.00  0.00    +0.075 A 
ATOM      3  S   UNL     1     -31.542  -9.410  17.625  0.00  0.00    -0.075 S 
ATOM      4  C   UNL     1     -30.928 -10.950  17.926  0.00  0.00    +0.109 A 
ATOM      5  N   UNL     1     -31.183 -11.775  16.885  0.00  0.00    -0.239 NA
ENDROOT
BRANCH   1  10
ATOM      6  C   UNL     1     -31.672 -13.519  12.927  0.00  0.00    +0.121 A 
ATOM      7  C   UNL     1     -32.937 -13.341  12.344  0.00  0.00    +0.049 A 
ATOM      8  C   UNL     1     -33.847 -12.439  12.896  0.00  0.00    +0.050 A 
ATOM      9  C   UNL     1     -33.514 -11.694  14.044  0.00  0.00    +0.129 A 
ATOM     10  C   UNL     1     -32.253 -11.889  14.651  0.00  0.00    +0.046 A 
ATOM     11  C   UNL     1     -31.339 -12.788  14.071  0.00  0.00    +0.059 A 
BRANCH   6  13
ATOM     12  C   UNL     1     -29.323 -14.335  12.662  0.00  0.00    +0.277 C 
ATOM     13  O   UNL     1     -30.721 -14.408  12.404  0.00  0.00    -0.495 OA
ENDBRANCH   6  13
BRANCH   9  14
ATOM     14  O   UNL     1     -34.399 -10.745  14.582  0.00  0.00    -0.494 OA
ATOM     15  C   UNL     1     -35.062  -9.735  13.829  0.00  0.00    +0.277 C 
ENDBRANCH   9  14
ENDBRANCH   1  10
BRANCH   4  16
ATOM     16  C   UNL     1     -30.216 -11.378  19.153  0.00  0.00    +0.008 A 
ATOM     17  C   UNL     1     -30.598 -10.891  20.415  0.00  0.00    +0.010 A 
ATOM     18  C   UNL     1     -29.913 -11.292  21.563  0.00  0.00    +0.001 A 
ATOM     19  C   UNL     1     -28.846 -12.185  21.470  0.00  0.00    +0.013 A 
ATOM     20  C   UNL     1     -28.451 -12.697  20.222  0.00  0.00    +0.037 A 
ATOM     21  C   UNL     1     -29.138 -12.279  19.067  0.00  0.00    +0.023 A 
BRANCH  20  22
ATOM     22  C   UNL     1     -27.313 -13.645  20.138  0.00  0.00    +0.242 C 
ATOM     23  N   UNL     1     -27.448 -15.013  20.532  0.00  0.00    -0.325 N 
ATOM     24  O   UNL     1     -26.193 -13.238  19.726  0.00  0.00    -0.270 OA
ATOM     25  H   UNL     1     -26.648 -15.672  20.406  0.00  0.00    +0.145 HD
ATOM     26  H   UNL     1     -28.297 -15.361  21.029  0.00  0.00    +0.145 HD
ENDBRANCH  20  22
ENDBRANCH   4  16
TORSDOF 5
ENDMDL
MODEL 5
REMARK VINA RESULT:    -4.369      2.069      3.137
REMARK INTER + INTRA:          -6.225
REMARK INTER:                  -5.753
REMARK INTRA:                  -0.472
REMARK UNBOUND:                -0.578
REMARK  Name = 
REMARK  7 active torsions:
REMARK  status: ('A' for Active; 'I' for Inactive)
REMARK    1  A    between atoms: C_1  and  O_2
REMARK    2  A    between atoms: O_2  and  C_3
REMARK    3  A    between atoms: C_6  and  O_7
REMARK    4  A    between atoms: O_7  and  C_8
REMARK    5  A    between atoms: C_9  and  C_11
REMARK    6  A    between atoms: C_14  and  C_16
REMARK    7  A    between atoms: C_20  and  C_22
REMARK                            x       y       z     vdW  Elec       q    Type
REMARK                         _______ _______ _______ _____ _____    ______ ____
ROOT
ATOM      1  C   UNL     1     -31.178 -12.008  16.437  0.00  0.00    +0.082 A 
ATOM      2  C   UNL     1     -30.492 -12.946  15.662  0.00  0.00    +0.075 A 
ATOM      3  S   UNL     1     -29.337 -13.674  16.639  0.00  0.00    -0.075 S 
ATOM      4  C   UNL     1     -29.740 -12.773  18.004  0.00  0.00    +0.109 A 
ATOM      5  N   UNL     1     -30.747 -11.914  17.727  0.00  0.00    -0.239 NA
ENDROOT
BRANCH   1  10
ATOM      6  C   UNL     1     -34.014 -10.765  14.267  0.00  0.00    +0.121 A 
ATOM      7  C   UNL     1     -34.320  -9.538  14.875  0.00  0.00    +0.049 A 
ATOM      8  C   UNL     1     -33.595  -9.100  15.984  0.00  0.00    +0.050 A 
ATOM      9  C   UNL     1     -32.548  -9.880  16.511  0.00  0.00    +0.129 A 
ATOM     10  C   UNL     1     -32.253 -11.129  15.920  0.00  0.00    +0.046 A 
ATOM     11  C   UNL     1     -32.981 -11.547  14.791  0.00  0.00    +0.059 A 
BRANCH   6  13
ATOM     12  C   UNL     1     -34.165 -12.140  12.184  0.00  0.00    +0.277 C 
ATOM     13  O   UNL     1     -34.709 -11.244  13.146  0.00  0.00    -0.495 OA
ENDBRANCH   6  13
BRANCH   9  14
ATOM     14  O   UNL     1     -31.775  -9.431  17.595  0.00  0.00    -0.494 OA
ATOM     15  C   UNL     1     -32.271  -8.654  18.680  0.00  0.00    +0.277 C 
ENDBRANCH   9  14
ENDBRANCH   1  10
BRANCH   4  16
ATOM     16  C   UNL     1     -29.093 -12.873  19.334  0.00  0.00    +0.008 A 
ATOM     17  C   UNL     1     -29.693 -12.310  20.473  0.00  0.00    +0.010 A 
ATOM     18  C   UNL     1     -29.070 -12.400  21.717  0.00  0.00    +0.001 A 
ATOM     19  C   UNL     1     -27.846 -13.056  21.845  0.00  0.00    +0.013 A 
ATOM     20  C   UNL     1     -27.229 -13.640  20.725  0.00  0.00    +0.037 A 
ATOM     21  C   UNL     1     -27.858 -13.534  19.470  0.00  0.00    +0.023 A 
BRANCH  20  22
ATOM     22  C   UNL     1     -25.926 -14.333  20.876  0.00  0.00    +0.242 C 
ATOM     23  N   UNL     1     -25.600 -15.062  22.062  0.00  0.00    -0.325 N 
ATOM     24  O   UNL     1     -25.076 -14.270  19.947  0.00  0.00    -0.270 OA
ATOM     25  H   UNL     1     -24.701 -15.591  22.117  0.00  0.00    +0.145 HD
ATOM     26  H   UNL     1     -26.193 -15.012  22.919  0.00  0.00    +0.145 HD
ENDBRANCH  20  22
ENDBRANCH   4  16
TORSDOF 5
ENDMDL
MODEL 6
REMARK VINA RESULT:    -4.314      3.778      6.742
REMARK INTER + INTRA:          -6.153
REMARK INTER:                  -5.567
REMARK INTRA:                  -0.586
REMARK UNBOUND:                -0.578
REMARK  Name = 
REMARK  7 active torsions:
REMARK  status: ('A' for Active; 'I' for Inactive)
REMARK    1  A    between atoms: C_1  and  O_2
REMARK    2  A    between atoms: O_2  and  C_3
REMARK    3  A    between atoms: C_6  and  O_7
REMARK    4  A    between atoms: O_7  and  C_8
REMARK    5  A    between atoms: C_9  and  C_11
REMARK    6  A    between atoms: C_14  and  C_16
REMARK    7  A    between atoms: C_20  and  C_22
REMARK                            x       y       z     vdW  Elec       q    Type
REMARK                         _______ _______ _______ _____ _____    ______ ____
ROOT
ATOM      1  C   UNL     1     -32.945 -10.170  17.417  0.00  0.00    +0.082 A 
ATOM      2  C   UNL     1     -34.286 -10.536  17.281  0.00  0.00    +0.075 A 
ATOM      3  S   UNL     1     -34.388 -11.668  16.046  0.00  0.00    -0.075 S 
ATOM      4  C   UNL     1     -32.735 -11.650  15.721  0.00  0.00    +0.109 A 
ATOM      5  N   UNL     1     -32.099 -10.784  16.542  0.00  0.00    -0.239 NA
ENDROOT
BRANCH   1  10
ATOM      6  C   UNL     1     -32.776  -6.986  19.449  0.00  0.00    +0.121 A 
ATOM      7  C   UNL     1     -31.608  -7.190  20.201  0.00  0.00    +0.049 A 
ATOM      8  C   UNL     1     -30.860  -8.356  20.037  0.00  0.00    +0.050 A 
ATOM      9  C   UNL     1     -31.263  -9.347  19.121  0.00  0.00    +0.129 A 
ATOM     10  C   UNL     1     -32.453  -9.159  18.382  0.00  0.00    +0.046 A 
ATOM     11  C   UNL     1     -33.186  -7.968  18.544  0.00  0.00    +0.059 A 
BRANCH   6  13
ATOM     12  C   UNL     1     -34.898  -5.707  19.113  0.00  0.00    +0.277 C 
ATOM     13  O   UNL     1     -33.556  -5.826  19.572  0.00  0.00    -0.495 OA
ENDBRANCH   6  13
BRANCH   9  14
ATOM     14  O   UNL     1     -30.495 -10.503  18.907  0.00  0.00    -0.494 OA
ATOM     15  C   UNL     1     -29.179 -10.515  18.363  0.00  0.00    +0.277 C 
ENDBRANCH   9  14
ENDBRANCH   1  10
BRANCH   4  16
ATOM     16  C   UNL     1     -32.044 -12.447  14.680  0.00  0.00    +0.008 A 
ATOM     17  C   UNL     1     -32.535 -12.496  13.365  0.00  0.00    +0.010 A 
ATOM     18  C   UNL     1     -31.884 -13.259  12.396  0.00  0.00    +0.001 A 
ATOM     19  C   UNL     1     -30.733 -13.977  12.721  0.00  0.00    +0.013 A 
ATOM     20  C   UNL     1     -30.213 -13.935  14.026  0.00  0.00    +0.037 A 
ATOM     21  C   UNL     1     -30.883 -13.174  15.003  0.00  0.00    +0.023 A 
BRANCH  20  22
ATOM     22  C   UNL     1     -28.989 -14.706  14.359  0.00  0.00    +0.242 C 
ATOM     23  N   UNL     1     -28.674 -15.062  15.708  0.00  0.00    -0.325 N 
ATOM     24  O   UNL     1     -28.197 -15.045  13.439  0.00  0.00    -0.270 OA
ATOM     25  H   UNL     1     -27.838 -15.656  15.907  0.00  0.00    +0.145 HD
ATOM     26  H   UNL     1     -29.202 -14.672  16.518  0.00  0.00    +0.145 HD
ENDBRANCH  20  22
ENDBRANCH   4  16
TORSDOF 5
ENDMDL
MODEL 7
REMARK VINA RESULT:    -4.082      1.981      2.655
REMARK INTER + INTRA:          -5.853
REMARK INTER:                  -5.723
REMARK INTRA:                  -0.130
REMARK UNBOUND:                -0.578
REMARK  Name = 
REMARK  7 active torsions:
REMARK  status: ('A' for Active; 'I' for Inactive)
REMARK    1  A    between atoms: C_1  and  O_2
REMARK    2  A    between atoms: O_2  and  C_3
REMARK    3  A    between atoms: C_6  and  O_7
REMARK    4  A    between atoms: O_7  and  C_8
REMARK    5  A    between atoms: C_9  and  C_11
REMARK    6  A    between atoms: C_14  and  C_16
REMARK    7  A    between atoms: C_20  and  C_22
REMARK                            x       y       z     vdW  Elec       q    Type
REMARK                         _______ _______ _______ _____ _____    ______ ____
ROOT
ATOM      1  C   UNL     1     -31.493 -12.362  15.679  0.00  0.00    +0.082 A 
ATOM      2  C   UNL     1     -30.657 -13.248  14.994  0.00  0.00    +0.075 A 
ATOM      3  S   UNL     1     -29.542 -13.857  16.091  0.00  0.00    -0.075 S 
ATOM      4  C   UNL     1     -30.150 -12.974  17.392  0.00  0.00    +0.109 A 
ATOM      5  N   UNL     1     -31.196 -12.212  17.001  0.00  0.00    -0.239 NA
ENDROOT
BRANCH   1  10
ATOM      6  C   UNL     1     -34.004  -9.602  15.068  0.00  0.00    +0.121 A 
ATOM      7  C   UNL     1     -34.638 -10.049  13.897  0.00  0.00    +0.049 A 
ATOM      8  C   UNL     1     -34.263 -11.258  13.311  0.00  0.00    +0.050 A 
ATOM      9  C   UNL     1     -33.245 -12.048  13.879  0.00  0.00    +0.129 A 
ATOM     10  C   UNL     1     -32.585 -11.590  15.042  0.00  0.00    +0.046 A 
ATOM     11  C   UNL     1     -32.988 -10.378  15.632  0.00  0.00    +0.059 A 
BRANCH   6  13
ATOM     12  C   UNL     1     -34.558  -8.254  17.099  0.00  0.00    +0.277 C 
ATOM     13  O   UNL     1     -34.351  -8.398  15.698  0.00  0.00    -0.495 OA
ENDBRANCH   6  13
BRANCH   9  14
ATOM     14  O   UNL     1     -32.891 -13.292  13.331  0.00  0.00    -0.494 OA
ATOM     15  C   UNL     1     -32.866 -13.587  11.938  0.00  0.00    +0.277 C 
ENDBRANCH   9  14
ENDBRANCH   1  10
BRANCH   4  16
ATOM     16  C   UNL     1     -29.628 -12.997  18.778  0.00  0.00    +0.008 A 
ATOM     17  C   UNL     1     -30.385 -12.483  19.844  0.00  0.00    +0.010 A 
ATOM     18  C   UNL     1     -29.879 -12.498  21.143  0.00  0.00    +0.001 A 
ATOM     19  C   UNL     1     -28.615 -13.031  21.399  0.00  0.00    +0.013 A 
ATOM     20  C   UNL     1     -27.841 -13.564  20.354  0.00  0.00    +0.037 A 
ATOM     21  C   UNL     1     -28.353 -13.533  19.043  0.00  0.00    +0.023 A 
BRANCH  20  22
ATOM     22  C   UNL     1     -26.497 -14.125  20.640  0.00  0.00    +0.242 C 
ATOM     23  N   UNL     1     -26.278 -15.015  21.739  0.00  0.00    -0.325 N 
ATOM     24  O   UNL     1     -25.519 -13.803  19.914  0.00  0.00    -0.270 OA
ATOM     25  H   UNL     1     -25.335 -15.442  21.881  0.00  0.00    +0.145 HD
ATOM     26  H   UNL     1     -27.008 -15.185  22.464  0.00  0.00    +0.145 HD
ENDBRANCH  20  22
ENDBRANCH   4  16
TORSDOF 5
ENDMDL
