MODEL 1
REMARK VINA RESULT:    -5.212      0.000      0.000
REMARK INTER + INTRA:          -8.264
REMARK INTER:                  -7.193
REMARK INTRA:                  -1.071
REMARK UNBOUND:                -1.071
REMARK  Name = 
REMARK  7 active torsions:
REMARK  status: ('A' for Active; 'I' for Inactive)
REMARK    1  A    between atoms: C_2  and  O_3
REMARK    2  A    between atoms: C_2  and  C_4
REMARK    3  A    between atoms: C_4  and  C_5
REMARK    4  A    between atoms: C_4  and  C_19
REMARK    5  A    between atoms: C_5  and  C_6
REMARK    6  A    between atoms: N_8  and  C_9
REMARK    7  A    between atoms: C_12  and  C_15
REMARK                            x       y       z     vdW  Elec       q    Type
REMARK                         _______ _______ _______ _____ _____    ______ ____
ROOT
ATOM      1  C   UNL     1     -31.998 -13.044  17.818  0.00  0.00    +0.218 C 
ATOM      2  O   UNL     1     -31.666 -14.225  17.526  0.00  0.00    -0.275 OA
ATOM      3  N   UNL     1     -31.263 -12.301  18.801  0.00  0.00    -0.285 N 
ATOM      4  H   UNL     1     -31.735 -11.486  19.254  0.00  0.00    +0.155 HD
ENDROOT
BRANCH   3   5
ATOM      5  C   UNL     1     -29.954 -12.668  19.267  0.00  0.00    +0.033 A 
ATOM      6  C   UNL     1     -29.773 -13.343  20.486  0.00  0.00    +0.024 A 
ATOM      7  C   UNL     1     -28.492 -13.708  20.908  0.00  0.00    +0.014 A 
ATOM      8  C   UNL     1     -27.371 -13.434  20.105  0.00  0.00    +0.055 A 
ATOM      9  C   UNL     1     -27.555 -12.756  18.888  0.00  0.00    +0.014 A 
ATOM     10  C   UNL     1     -28.836 -12.391  18.467  0.00  0.00    +0.024 A 
BRANCH   8  11
ATOM     11  C   UNL     1     -25.982 -13.779  20.580  0.00  0.00    +0.417 C 
ATOM     12  F   UNL     1     -25.639 -15.061  20.188  0.00  0.00    -0.166 F 
ATOM     13  F   UNL     1     -25.902 -13.713  21.961  0.00  0.00    -0.166 F 
ATOM     14  F   UNL     1     -25.079 -12.885  20.035  0.00  0.00    -0.166 F 
ENDBRANCH   8  11
ENDBRANCH   3   5
BRANCH   1  15
ATOM     15  C   UNL     1     -33.173 -12.416  17.121  0.00  0.00    +0.115 C 
BRANCH  15  16
ATOM     16  C   UNL     1     -32.714 -11.345  16.111  0.00  0.00    +0.136 C 
BRANCH  16  17
ATOM     17  C   UNL     1     -32.866 -11.844  14.687  0.00  0.00    -0.033 A 
ATOM     18  C   UNL     1     -34.111 -11.751  14.037  0.00  0.00    +0.004 A 
ATOM     19  C   UNL     1     -34.261 -12.202  12.722  0.00  0.00    +0.000 A 
ATOM     20  C   UNL     1     -33.171 -12.751  12.042  0.00  0.00    +0.000 A 
ATOM     21  C   UNL     1     -31.929 -12.847  12.674  0.00  0.00    +0.000 A 
ATOM     22  C   UNL     1     -31.774 -12.396  13.989  0.00  0.00    +0.004 A 
ENDBRANCH  16  17
BRANCH  16  24
ATOM     23  O   UNL     1     -34.646 -10.053  16.700  0.00  0.00    -0.250 OA
ATOM     24  C   UNL     1     -33.454 -10.043  16.290  0.00  0.00    +0.313 C 
BRANCH  24  25
ATOM     25  O   UNL     1     -32.819  -8.828  16.047  0.00  0.00    -0.480 OA
ATOM     26  H   UNL     1     -32.153  -8.731  15.292  0.00  0.00    +0.295 HD
ENDBRANCH  24  25
ENDBRANCH  16  24
ENDBRANCH  15  16
ENDBRANCH   1  15
TORSDOF 7
ENDMDL
MODEL 2
REMARK VINA RESULT:    -4.832      1.407      2.272
REMARK INTER + INTRA:          -7.739
REMARK INTER:                  -6.870
REMARK INTRA:                  -0.870
REMARK UNBOUND:                -1.071
REMARK  Name = 
REMARK  7 active torsions:
REMARK  status: ('A' for Active; 'I' for Inactive)
REMARK    1  A    between atoms: C_2  and  O_3
REMARK    2  A    between atoms: C_2  and  C_4
REMARK    3  A    between atoms: C_4  and  C_5
REMARK    4  A    between atoms: C_4  and  C_19
REMARK    5  A    between atoms: C_5  and  C_6
REMARK    6  A    between atoms: N_8  and  C_9
REMARK    7  A    between atoms: C_12  and  C_15
REMARK                            x       y       z     vdW  Elec       q    Type
REMARK                         _______ _______ _______ _____ _____    ______ ____
ROOT
ATOM      1  C   UNL     1     -31.090 -10.356  16.917  0.00  0.00    +0.218 C 
ATOM      2  O   UNL     1     -31.409  -9.874  18.038  0.00  0.00    -0.275 OA
ATOM      3  N   UNL     1     -29.999 -11.280  16.804  0.00  0.00    -0.285 N 
ATOM      4  H   UNL     1     -29.554 -11.402  15.867  0.00  0.00    +0.155 HD
ENDROOT
BRANCH   3   5
ATOM      5  C   UNL     1     -29.421 -11.977  17.921  0.00  0.00    +0.033 A 
ATOM      6  C   UNL     1     -30.157 -12.925  18.651  0.00  0.00    +0.024 A 
ATOM      7  C   UNL     1     -29.569 -13.606  19.720  0.00  0.00    +0.014 A 
ATOM      8  C   UNL     1     -28.224 -13.376  20.059  0.00  0.00    +0.055 A 
ATOM      9  C   UNL     1     -27.492 -12.424  19.329  0.00  0.00    +0.014 A 
ATOM     10  C   UNL     1     -28.082 -11.743  18.261  0.00  0.00    +0.024 A 
BRANCH   8  11
ATOM     11  C   UNL     1     -27.600 -14.068  21.245  0.00  0.00    +0.417 C 
ATOM     12  F   UNL     1     -26.732 -15.061  20.825  0.00  0.00    -0.166 F 
ATOM     13  F   UNL     1     -28.570 -14.651  22.042  0.00  0.00    -0.166 F 
ATOM     14  F   UNL     1     -26.898 -13.144  21.994  0.00  0.00    -0.166 F 
ENDBRANCH   8  11
ENDBRANCH   3   5
BRANCH   1  15
ATOM     15  C   UNL     1     -31.869  -9.956  15.696  0.00  0.00    +0.115 C 
BRANCH  15  16
ATOM     16  C   UNL     1     -33.134 -10.824  15.532  0.00  0.00    +0.136 C 
BRANCH  16  17
ATOM     17  C   UNL     1     -33.042 -11.683  14.286  0.00  0.00    -0.033 A 
ATOM     18  C   UNL     1     -31.815 -12.267  13.922  0.00  0.00    +0.004 A 
ATOM     19  C   UNL     1     -31.721 -13.066  12.778  0.00  0.00    +0.000 A 
ATOM     20  C   UNL     1     -32.849 -13.291  11.986  0.00  0.00    +0.000 A 
ATOM     21  C   UNL     1     -34.074 -12.719  12.336  0.00  0.00    +0.000 A 
ATOM     22  C   UNL     1     -34.174 -11.920  13.480  0.00  0.00    +0.004 A 
ENDBRANCH  16  17
BRANCH  16  24
ATOM     23  O   UNL     1     -33.113 -12.914  16.706  0.00  0.00    -0.250 OA
ATOM     24  C   UNL     1     -33.391 -11.685  16.742  0.00  0.00    +0.313 C 
BRANCH  24  25
ATOM     25  O   UNL     1     -33.894 -11.127  17.915  0.00  0.00    -0.480 OA
ATOM     26  H   UNL     1     -34.733 -10.561  17.904  0.00  0.00    +0.295 HD
ENDBRANCH  24  25
ENDBRANCH  16  24
ENDBRANCH  15  16
ENDBRANCH   1  15
TORSDOF 7
ENDMDL
MODEL 3
REMARK VINA RESULT:    -4.771      4.694      8.250
REMARK INTER + INTRA:          -7.655
REMARK INTER:                  -7.290
REMARK INTRA:                  -0.365
REMARK UNBOUND:                -1.071
REMARK  Name = 
REMARK  7 active torsions:
REMARK  status: ('A' for Active; 'I' for Inactive)
REMARK    1  A    between atoms: C_2  and  O_3
REMARK    2  A    between atoms: C_2  and  C_4
REMARK    3  A    between atoms: C_4  and  C_5
REMARK    4  A    between atoms: C_4  and  C_19
REMARK    5  A    between atoms: C_5  and  C_6
REMARK    6  A    between atoms: N_8  and  C_9
REMARK    7  A    between atoms: C_12  and  C_15
REMARK                            x       y       z     vdW  Elec       q    Type
REMARK                         _______ _______ _______ _____ _____    ______ ____
ROOT
ATOM      1  C   UNL     1     -29.450 -11.594  17.591  0.00  0.00    +0.218 C 
ATOM      2  O   UNL     1     -29.144 -12.712  17.093  0.00  0.00    -0.275 OA
ATOM      3  N   UNL     1     -30.394 -10.737  16.934  0.00  0.00    -0.285 N 
ATOM      4  H   UNL     1     -30.381  -9.720  17.172  0.00  0.00    +0.155 HD
ENDROOT
BRANCH   3   5
ATOM      5  C   UNL     1     -31.290 -11.177  15.900  0.00  0.00    +0.033 A 
ATOM      6  C   UNL     1     -32.437 -10.438  15.562  0.00  0.00    +0.024 A 
ATOM      7  C   UNL     1     -33.283 -10.874  14.539  0.00  0.00    +0.014 A 
ATOM      8  C   UNL     1     -32.982 -12.039  13.812  0.00  0.00    +0.055 A 
ATOM      9  C   UNL     1     -31.835 -12.777  14.154  0.00  0.00    +0.014 A 
ATOM     10  C   UNL     1     -30.990 -12.340  15.178  0.00  0.00    +0.024 A 
BRANCH   8  11
ATOM     11  C   UNL     1     -33.918 -12.543  12.743  0.00  0.00    +0.417 C 
ATOM     12  F   UNL     1     -34.342 -11.499  11.938  0.00  0.00    -0.166 F 
ATOM     13  F   UNL     1     -35.036 -13.136  13.306  0.00  0.00    -0.166 F 
ATOM     14  F   UNL     1     -33.260 -13.474  11.963  0.00  0.00    -0.166 F 
ENDBRANCH   8  11
ENDBRANCH   3   5
BRANCH   1  15
ATOM     15  C   UNL     1     -28.820 -11.170  18.887  0.00  0.00    +0.115 C 
BRANCH  15  16
ATOM     16  C   UNL     1     -29.218 -12.117  20.038  0.00  0.00    +0.136 C 
BRANCH  16  17
ATOM     17  C   UNL     1     -28.031 -12.941  20.495  0.00  0.00    -0.033 A 
ATOM     18  C   UNL     1     -28.169 -13.839  21.571  0.00  0.00    +0.004 A 
ATOM     19  C   UNL     1     -27.081 -14.609  21.996  0.00  0.00    +0.000 A 
ATOM     20  C   UNL     1     -25.846 -14.492  21.354  0.00  0.00    +0.000 A 
ATOM     21  C   UNL     1     -25.696 -13.606  20.284  0.00  0.00    +0.000 A 
ATOM     22  C   UNL     1     -26.781 -12.835  19.854  0.00  0.00    +0.004 A 
ENDBRANCH  16  17
BRANCH  16  24
ATOM     23  O   UNL     1     -30.961 -11.689  21.628  0.00  0.00    -0.250 OA
ATOM     24  C   UNL     1     -29.817 -11.372  21.204  0.00  0.00    +0.313 C 
BRANCH  24  25
ATOM     25  O   UNL     1     -29.101 -10.364  21.843  0.00  0.00    -0.480 OA
ATOM     26  H   UNL     1     -28.337 -10.584  22.470  0.00  0.00    +0.295 HD
ENDBRANCH  24  25
ENDBRANCH  16  24
ENDBRANCH  15  16
ENDBRANCH   1  15
TORSDOF 7
ENDMDL
MODEL 4
REMARK VINA RESULT:    -4.587      4.702      7.477
REMARK INTER + INTRA:          -7.401
REMARK INTER:                  -6.621
REMARK INTRA:                  -0.780
REMARK UNBOUND:                -1.071
REMARK  Name = 
REMARK  7 active torsions:
REMARK  status: ('A' for Active; 'I' for Inactive)
REMARK    1  A    between atoms: C_2  and  O_3
REMARK    2  A    between atoms: C_2  and  C_4
REMARK    3  A    between atoms: C_4  and  C_5
REMARK    4  A    between atoms: C_4  and  C_19
REMARK    5  A    between atoms: C_5  and  C_6
REMARK    6  A    between atoms: N_8  and  C_9
REMARK    7  A    between atoms: C_12  and  C_15
REMARK                            x       y       z     vdW  Elec       q    Type
REMARK                         _______ _______ _______ _____ _____    ______ ____
ROOT
ATOM      1  C   UNL     1     -32.245 -11.308  19.032  0.00  0.00    +0.218 C 
ATOM      2  O   UNL     1     -32.335 -12.563  18.946  0.00  0.00    -0.275 OA
ATOM      3  N   UNL     1     -32.196 -10.497  17.850  0.00  0.00    -0.285 N 
ATOM      4  H   UNL     1     -31.800  -9.534  17.931  0.00  0.00    +0.155 HD
ENDROOT
BRANCH   3   5
ATOM      5  C   UNL     1     -32.573 -10.963  16.543  0.00  0.00    +0.033 A 
ATOM      6  C   UNL     1     -31.612 -11.196  15.544  0.00  0.00    +0.024 A 
ATOM      7  C   UNL     1     -31.999 -11.670  14.288  0.00  0.00    +0.014 A 
ATOM      8  C   UNL     1     -33.349 -11.951  14.016  0.00  0.00    +0.055 A 
ATOM      9  C   UNL     1     -34.308 -11.714  15.016  0.00  0.00    +0.014 A 
ATOM     10  C   UNL     1     -33.920 -11.240  16.272  0.00  0.00    +0.024 A 
BRANCH   8  11
ATOM     11  C   UNL     1     -33.779 -12.412  12.646  0.00  0.00    +0.417 C 
ATOM     12  F   UNL     1     -34.345 -11.366  11.938  0.00  0.00    -0.166 F 
ATOM     13  F   UNL     1     -34.715 -13.428  12.738  0.00  0.00    -0.166 F 
ATOM     14  F   UNL     1     -32.676 -12.877  11.956  0.00  0.00    -0.166 F 
ENDBRANCH   8  11
ENDBRANCH   3   5
BRANCH   1  15
ATOM     15  C   UNL     1     -32.195 -10.666  20.390  0.00  0.00    +0.115 C 
BRANCH  15  16
ATOM     16  C   UNL     1     -30.825 -10.003  20.643  0.00  0.00    +0.136 C 
BRANCH  16  17
ATOM     17  C   UNL     1     -29.703 -10.845  20.071  0.00  0.00    -0.033 A 
ATOM     18  C   UNL     1     -29.246 -11.978  20.771  0.00  0.00    +0.004 A 
ATOM     19  C   UNL     1     -28.215 -12.766  20.249  0.00  0.00    +0.000 A 
ATOM     20  C   UNL     1     -27.629 -12.433  19.025  0.00  0.00    +0.000 A 
ATOM     21  C   UNL     1     -28.074 -11.312  18.320  0.00  0.00    +0.000 A 
ATOM     22  C   UNL     1     -29.106 -10.522  18.837  0.00  0.00    +0.004 A 
ENDBRANCH  16  17
BRANCH  16  24
ATOM     23  O   UNL     1     -31.579  -8.245  19.197  0.00  0.00    -0.250 OA
ATOM     24  C   UNL     1     -30.762  -8.602  20.089  0.00  0.00    +0.313 C 
BRANCH  24  25
ATOM     25  O   UNL     1     -29.837  -7.686  20.583  0.00  0.00    -0.480 OA
ATOM     26  H   UNL     1     -29.775  -7.491  21.574  0.00  0.00    +0.295 HD
ENDBRANCH  24  25
ENDBRANCH  16  24
ENDBRANCH  15  16
ENDBRANCH   1  15
TORSDOF 7
ENDMDL
MODEL 5
REMARK VINA RESULT:    -4.295      4.667      7.554
REMARK INTER + INTRA:          -6.998
REMARK INTER:                  -6.208
REMARK INTRA:                  -0.791
REMARK UNBOUND:                -1.071
REMARK  Name = 
REMARK  7 active torsions:
REMARK  status: ('A' for Active; 'I' for Inactive)
REMARK    1  A    between atoms: C_2  and  O_3
REMARK    2  A    between atoms: C_2  and  C_4
REMARK    3  A    between atoms: C_4  and  C_5
REMARK    4  A    between atoms: C_4  and  C_19
REMARK    5  A    between atoms: C_5  and  C_6
REMARK    6  A    between atoms: N_8  and  C_9
REMARK    7  A    between atoms: C_12  and  C_15
REMARK                            x       y       z     vdW  Elec       q    Type
REMARK                         _______ _______ _______ _____ _____    ______ ____
ROOT
ATOM      1  C   UNL     1     -28.352 -12.226  18.203  0.00  0.00    +0.218 C 
ATOM      2  O   UNL     1     -28.449 -13.342  17.625  0.00  0.00    -0.275 OA
ATOM      3  N   UNL     1     -29.075 -11.086  17.716  0.00  0.00    -0.285 N 
ATOM      4  H   UNL     1     -28.737 -10.137  17.990  0.00  0.00    +0.155 HD
ENDROOT
BRANCH   3   5
ATOM      5  C   UNL     1     -30.179 -11.171  16.799  0.00  0.00    +0.033 A 
ATOM      6  C   UNL     1     -30.506 -12.378  16.158  0.00  0.00    +0.024 A 
ATOM      7  C   UNL     1     -31.597 -12.443  15.286  0.00  0.00    +0.014 A 
ATOM      8  C   UNL     1     -32.399 -11.311  15.063  0.00  0.00    +0.055 A 
ATOM      9  C   UNL     1     -32.067 -10.104  15.703  0.00  0.00    +0.014 A 
ATOM     10  C   UNL     1     -30.976 -10.041  16.574  0.00  0.00    +0.024 A 
BRANCH   8  11
ATOM     11  C   UNL     1     -33.544 -11.360  14.083  0.00  0.00    +0.417 C 
ATOM     12  F   UNL     1     -33.148 -11.967  12.903  0.00  0.00    -0.166 F 
ATOM     13  F   UNL     1     -33.993 -10.085  13.784  0.00  0.00    -0.166 F 
ATOM     14  F   UNL     1     -34.584 -12.085  14.634  0.00  0.00    -0.166 F 
ENDBRANCH   8  11
ENDBRANCH   3   5
BRANCH   1  15
ATOM     15  C   UNL     1     -27.474 -12.099  19.416  0.00  0.00    +0.115 C 
BRANCH  15  16
ATOM     16  C   UNL     1     -28.247 -12.451  20.704  0.00  0.00    +0.136 C 
BRANCH  16  17
ATOM     17  C   UNL     1     -29.675 -11.946  20.633  0.00  0.00    -0.033 A 
ATOM     18  C   UNL     1     -29.971 -10.619  20.995  0.00  0.00    +0.004 A 
ATOM     19  C   UNL     1     -31.284 -10.141  20.927  0.00  0.00    +0.000 A 
ATOM     20  C   UNL     1     -32.314 -10.981  20.497  0.00  0.00    +0.000 A 
ATOM     21  C   UNL     1     -32.033 -12.300  20.132  0.00  0.00    +0.000 A 
ATOM     22  C   UNL     1     -30.722 -12.782  20.197  0.00  0.00    +0.004 A 
ENDBRANCH  16  17
BRANCH  16  24
ATOM     23  O   UNL     1     -28.727 -14.367  22.062  0.00  0.00    -0.250 OA
ATOM     24  C   UNL     1     -28.230 -13.931  20.989  0.00  0.00    +0.313 C 
BRANCH  24  25
ATOM     25  O   UNL     1     -27.707 -14.825  20.058  0.00  0.00    -0.480 OA
ATOM     26  H   UNL     1     -27.048 -14.519  19.355  0.00  0.00    +0.295 HD
ENDBRANCH  24  25
ENDBRANCH  16  24
ENDBRANCH  15  16
ENDBRANCH   1  15
TORSDOF 7
ENDMDL
MODEL 6
REMARK VINA RESULT:    -4.223      4.221      5.500
REMARK INTER + INTRA:          -6.899
REMARK INTER:                  -6.150
REMARK INTRA:                  -0.749
REMARK UNBOUND:                -1.071
REMARK  Name = 
REMARK  7 active torsions:
REMARK  status: ('A' for Active; 'I' for Inactive)
REMARK    1  A    between atoms: C_2  and  O_3
REMARK    2  A    between atoms: C_2  and  C_4
REMARK    3  A    between atoms: C_4  and  C_5
REMARK    4  A    between atoms: C_4  and  C_19
REMARK    5  A    between atoms: C_5  and  C_6
REMARK    6  A    between atoms: N_8  and  C_9
REMARK    7  A    between atoms: C_12  and  C_15
REMARK                            x       y       z     vdW  Elec       q    Type
REMARK                         _______ _______ _______ _____ _____    ______ ____
ROOT
ATOM      1  C   UNL     1     -32.169 -12.423  17.161  0.00  0.00    +0.218 C 
ATOM      2  O   UNL     1     -32.623 -12.790  18.279  0.00  0.00    -0.275 OA
ATOM      3  N   UNL     1     -31.802 -11.055  16.936  0.00  0.00    -0.285 N 
ATOM      4  H   UNL     1     -31.750 -10.717  15.949  0.00  0.00    +0.155 HD
ENDROOT
BRANCH   3   5
ATOM      5  C   UNL     1     -31.594 -10.099  17.989  0.00  0.00    +0.033 A 
ATOM      6  C   UNL     1     -30.482 -10.183  18.844  0.00  0.00    +0.024 A 
ATOM      7  C   UNL     1     -30.289  -9.230  19.848  0.00  0.00    +0.014 A 
ATOM      8  C   UNL     1     -31.185  -8.158  19.996  0.00  0.00    +0.055 A 
ATOM      9  C   UNL     1     -32.298  -8.078  19.141  0.00  0.00    +0.014 A 
ATOM     10  C   UNL     1     -32.490  -9.032  18.138  0.00  0.00    +0.024 A 
BRANCH   8  11
ATOM     11  C   UNL     1     -31.010  -7.157  21.110  0.00  0.00    +0.417 C 
ATOM     12  F   UNL     1     -30.112  -7.631  22.052  0.00  0.00    -0.166 F 
ATOM     13  F   UNL     1     -32.215  -6.913  21.748  0.00  0.00    -0.166 F 
ATOM     14  F   UNL     1     -30.530  -5.972  20.587  0.00  0.00    -0.166 F 
ENDBRANCH   8  11
ENDBRANCH   3   5
BRANCH   1  15
ATOM     15  C   UNL     1     -32.011 -13.437  16.063  0.00  0.00    +0.115 C 
BRANCH  15  16
ATOM     16  C   UNL     1     -30.728 -14.272  16.255  0.00  0.00    +0.136 C 
BRANCH  16  17
ATOM     17  C   UNL     1     -29.992 -14.442  14.940  0.00  0.00    -0.033 A 
ATOM     18  C   UNL     1     -30.656 -14.196  13.724  0.00  0.00    +0.004 A 
ATOM     19  C   UNL     1     -29.985 -14.345  12.506  0.00  0.00    +0.000 A 
ATOM     20  C   UNL     1     -28.645 -14.740  12.488  0.00  0.00    +0.000 A 
ATOM     21  C   UNL     1     -27.974 -14.986  13.688  0.00  0.00    +0.000 A 
ATOM     22  C   UNL     1     -28.640 -14.838  14.909  0.00  0.00    +0.004 A 
ENDBRANCH  16  17
BRANCH  16  24
ATOM     23  O   UNL     1     -29.242 -12.572  17.062  0.00  0.00    -0.250 OA
ATOM     24  C   UNL     1     -29.812 -13.673  17.292  0.00  0.00    +0.313 C 
BRANCH  24  25
ATOM     25  O   UNL     1     -29.623 -14.304  18.519  0.00  0.00    -0.480 OA
ATOM     26  H   UNL     1     -29.464 -13.768  19.361  0.00  0.00    +0.295 HD
ENDBRANCH  24  25
ENDBRANCH  16  24
ENDBRANCH  15  16
ENDBRANCH   1  15
TORSDOF 7
ENDMDL
MODEL 7
REMARK VINA RESULT:    -4.218      5.015      6.686
REMARK INTER + INTRA:          -6.892
REMARK INTER:                  -5.694
REMARK INTRA:                  -1.198
REMARK UNBOUND:                -1.071
REMARK  Name = 
REMARK  7 active torsions:
REMARK  status: ('A' for Active; 'I' for Inactive)
REMARK    1  A    between atoms: C_2  and  O_3
REMARK    2  A    between atoms: C_2  and  C_4
REMARK    3  A    between atoms: C_4  and  C_5
REMARK    4  A    between atoms: C_4  and  C_19
REMARK    5  A    between atoms: C_5  and  C_6
REMARK    6  A    between atoms: N_8  and  C_9
REMARK    7  A    between atoms: C_12  and  C_15
REMARK                            x       y       z     vdW  Elec       q    Type
REMARK                         _______ _______ _______ _____ _____    ______ ____
ROOT
ATOM      1  C   UNL     1     -29.984 -10.893  17.405  0.00  0.00    +0.218 C 
ATOM      2  O   UNL     1     -29.576  -9.884  16.766  0.00  0.00    -0.275 OA
ATOM      3  N   UNL     1     -30.887 -10.741  18.509  0.00  0.00    -0.285 N 
ATOM      4  H   UNL     1     -30.946 -11.517  19.205  0.00  0.00    +0.155 HD
ENDROOT
BRANCH   3   5
ATOM      5  C   UNL     1     -31.646  -9.547  18.763  0.00  0.00    +0.033 A 
ATOM      6  C   UNL     1     -32.891  -9.326  18.150  0.00  0.00    +0.024 A 
ATOM      7  C   UNL     1     -33.621  -8.167  18.429  0.00  0.00    +0.014 A 
ATOM      8  C   UNL     1     -33.135  -7.223  19.350  0.00  0.00    +0.055 A 
ATOM      9  C   UNL     1     -31.888  -7.445  19.959  0.00  0.00    +0.014 A 
ATOM     10  C   UNL     1     -31.159  -8.603  19.679  0.00  0.00    +0.024 A 
BRANCH   8  11
ATOM     11  C   UNL     1     -33.893  -5.946  19.614  0.00  0.00    +0.417 C 
ATOM     12  F   UNL     1     -34.208  -5.313  18.424  0.00  0.00    -0.166 F 
ATOM     13  F   UNL     1     -33.138  -5.074  20.381  0.00  0.00    -0.166 F 
ATOM     14  F   UNL     1     -35.062  -6.242  20.289  0.00  0.00    -0.166 F 
ENDBRANCH   8  11
ENDBRANCH   3   5
BRANCH   1  15
ATOM     15  C   UNL     1     -29.517 -12.261  16.994  0.00  0.00    +0.115 C 
BRANCH  15  16
ATOM     16  C   UNL     1     -30.688 -13.112  16.459  0.00  0.00    +0.136 C 
BRANCH  16  17
ATOM     17  C   UNL     1     -30.368 -13.669  15.086  0.00  0.00    -0.033 A 
ATOM     18  C   UNL     1     -29.264 -14.525  14.912  0.00  0.00    +0.004 A 
ATOM     19  C   UNL     1     -28.963 -15.048  13.651  0.00  0.00    +0.000 A 
ATOM     20  C   UNL     1     -29.760 -14.725  12.550  0.00  0.00    +0.000 A 
ATOM     21  C   UNL     1     -30.860 -13.878  12.708  0.00  0.00    +0.000 A 
ATOM     22  C   UNL     1     -31.166 -13.353  13.968  0.00  0.00    +0.004 A 
ENDBRANCH  16  17
BRANCH  16  24
ATOM     23  O   UNL     1     -32.178 -14.790  17.302  0.00  0.00    -0.250 OA
ATOM     24  C   UNL     1     -31.054 -14.229  17.403  0.00  0.00    +0.313 C 
BRANCH  24  25
ATOM     25  O   UNL     1     -30.146 -14.674  18.360  0.00  0.00    -0.480 OA
ATOM     26  H   UNL     1     -29.156 -14.492  18.263  0.00  0.00    +0.295 HD
ENDBRANCH  24  25
ENDBRANCH  16  24
ENDBRANCH  15  16
ENDBRANCH   1  15
TORSDOF 7
ENDMDL
MODEL 8
REMARK VINA RESULT:    -3.930      4.193      7.011
REMARK INTER + INTRA:          -6.494
REMARK INTER:                  -5.038
REMARK INTRA:                  -1.457
REMARK UNBOUND:                -1.071
REMARK  Name = 
REMARK  7 active torsions:
REMARK  status: ('A' for Active; 'I' for Inactive)
REMARK    1  A    between atoms: C_2  and  O_3
REMARK    2  A    between atoms: C_2  and  C_4
REMARK    3  A    between atoms: C_4  and  C_5
REMARK    4  A    between atoms: C_4  and  C_19
REMARK    5  A    between atoms: C_5  and  C_6
REMARK    6  A    between atoms: N_8  and  C_9
REMARK    7  A    between atoms: C_12  and  C_15
REMARK                            x       y       z     vdW  Elec       q    Type
REMARK                         _______ _______ _______ _____ _____    ______ ____
ROOT
ATOM      1  C   UNL     1     -32.735  -9.606  17.739  0.00  0.00    +0.218 C 
ATOM      2  O   UNL     1     -31.693  -9.100  17.238  0.00  0.00    -0.275 OA
ATOM      3  N   UNL     1     -33.405 -10.693  17.085  0.00  0.00    -0.285 N 
ATOM      4  H   UNL     1     -34.406 -10.867  17.326  0.00  0.00    +0.155 HD
ENDROOT
BRANCH   3   5
ATOM      5  C   UNL     1     -32.808 -11.496  16.053  0.00  0.00    +0.033 A 
ATOM      6  C   UNL     1     -32.959 -11.171  14.694  0.00  0.00    +0.024 A 
ATOM      7  C   UNL     1     -32.352 -11.954  13.709  0.00  0.00    +0.014 A 
ATOM      8  C   UNL     1     -31.558 -13.058  14.064  0.00  0.00    +0.055 A 
ATOM      9  C   UNL     1     -31.412 -13.383  15.424  0.00  0.00    +0.014 A 
ATOM     10  C   UNL     1     -32.019 -12.599  16.408  0.00  0.00    +0.024 A 
BRANCH   8  11
ATOM     11  C   UNL     1     -30.945 -13.938  13.003  0.00  0.00    +0.417 C 
ATOM     12  F   UNL     1     -29.941 -13.261  12.331  0.00  0.00    -0.166 F 
ATOM     13  F   UNL     1     -31.897 -14.330  12.077  0.00  0.00    -0.166 F 
ATOM     14  F   UNL     1     -30.407 -15.062  13.599  0.00  0.00    -0.166 F 
ENDBRANCH   8  11
ENDBRANCH   3   5
BRANCH   1  15
ATOM     15  C   UNL     1     -33.267  -9.061  19.034  0.00  0.00    +0.115 C 
BRANCH  15  16
ATOM     16  C   UNL     1     -33.458 -10.183  20.075  0.00  0.00    +0.136 C 
BRANCH  16  17
ATOM     17  C   UNL     1     -32.127 -10.799  20.457  0.00  0.00    -0.033 A 
ATOM     18  C   UNL     1     -31.146 -10.018  21.096  0.00  0.00    +0.004 A 
ATOM     19  C   UNL     1     -29.917 -10.578  21.458  0.00  0.00    +0.000 A 
ATOM     20  C   UNL     1     -29.653 -11.923  21.187  0.00  0.00    +0.000 A 
ATOM     21  C   UNL     1     -30.619 -12.711  20.555  0.00  0.00    +0.000 A 
ATOM     22  C   UNL     1     -31.850 -12.156  20.192  0.00  0.00    +0.004 A 
ENDBRANCH  16  17
BRANCH  16  24
ATOM     23  O   UNL     1     -34.016  -8.512  21.701  0.00  0.00    -0.250 OA
ATOM     24  C   UNL     1     -34.182  -9.697  21.306  0.00  0.00    +0.313 C 
BRANCH  24  25
ATOM     25  O   UNL     1     -35.062 -10.534  21.986  0.00  0.00    -0.480 OA
ATOM     26  H   UNL     1     -35.645 -10.180  22.734  0.00  0.00    +0.295 HD
ENDBRANCH  24  25
ENDBRANCH  16  24
ENDBRANCH  15  16
ENDBRANCH   1  15
TORSDOF 7
ENDMDL
MODEL 9
REMARK VINA RESULT:    -3.432      1.613      2.657
REMARK INTER + INTRA:          -5.808
REMARK INTER:                  -4.907
REMARK INTRA:                  -0.901
REMARK UNBOUND:                -1.071
REMARK  Name = 
REMARK  7 active torsions:
REMARK  status: ('A' for Active; 'I' for Inactive)
REMARK    1  A    between atoms: C_2  and  O_3
REMARK    2  A    between atoms: C_2  and  C_4
REMARK    3  A    between atoms: C_4  and  C_5
REMARK    4  A    between atoms: C_4  and  C_19
REMARK    5  A    between atoms: C_5  and  C_6
REMARK    6  A    between atoms: N_8  and  C_9
REMARK    7  A    between atoms: C_12  and  C_15
REMARK                            x       y       z     vdW  Elec       q    Type
REMARK                         _______ _______ _______ _____ _____    ______ ____
ROOT
ATOM      1  C   UNL     1     -32.091 -12.637  18.201  0.00  0.00    +0.218 C 
ATOM      2  O   UNL     1     -31.902 -13.857  17.943  0.00  0.00    -0.275 OA
ATOM      3  N   UNL     1     -31.201 -11.930  19.076  0.00  0.00    -0.285 N 
ATOM      4  H   UNL     1     -31.549 -11.052  19.524  0.00  0.00    +0.155 HD
ENDROOT
BRANCH   3   5
ATOM      5  C   UNL     1     -29.896 -12.405  19.445  0.00  0.00    +0.033 A 
ATOM      6  C   UNL     1     -28.781 -12.199  18.616  0.00  0.00    +0.024 A 
ATOM      7  C   UNL     1     -27.517 -12.651  19.005  0.00  0.00    +0.014 A 
ATOM      8  C   UNL     1     -27.339 -13.290  20.244  0.00  0.00    +0.055 A 
ATOM      9  C   UNL     1     -28.457 -13.498  21.070  0.00  0.00    +0.014 A 
ATOM     10  C   UNL     1     -29.720 -13.045  20.680  0.00  0.00    +0.024 A 
BRANCH   8  11
ATOM     11  C   UNL     1     -25.988 -13.827  20.646  0.00  0.00    +0.417 C 
ATOM     12  F   UNL     1     -24.983 -12.965  20.242  0.00  0.00    -0.166 F 
ATOM     13  F   UNL     1     -25.756 -15.063  20.065  0.00  0.00    -0.166 F 
ATOM     14  F   UNL     1     -25.941 -13.961  22.020  0.00  0.00    -0.166 F 
ENDBRANCH   8  11
ENDBRANCH   3   5
BRANCH   1  15
ATOM     15  C   UNL     1     -33.258 -11.926  17.576  0.00  0.00    +0.115 C 
BRANCH  15  16
ATOM     16  C   UNL     1     -32.955 -10.427  17.372  0.00  0.00    +0.136 C 
BRANCH  16  17
ATOM     17  C   UNL     1     -33.651  -9.898  16.134  0.00  0.00    -0.033 A 
ATOM     18  C   UNL     1     -33.867 -10.745  15.030  0.00  0.00    +0.004 A 
ATOM     19  C   UNL     1     -34.514 -10.268  13.886  0.00  0.00    +0.000 A 
ATOM     20  C   UNL     1     -34.954  -8.944  13.830  0.00  0.00    +0.000 A 
ATOM     21  C   UNL     1     -34.748  -8.093  14.919  0.00  0.00    +0.000 A 
ATOM     22  C   UNL     1     -34.102  -8.565  16.066  0.00  0.00    +0.004 A 
ENDBRANCH  16  17
BRANCH  16  24
ATOM     23  O   UNL     1     -32.617  -8.621  18.911  0.00  0.00    -0.250 OA
ATOM     24  C   UNL     1     -33.332  -9.604  18.577  0.00  0.00    +0.313 C 
BRANCH  24  25
ATOM     25  O   UNL     1     -34.486  -9.894  19.299  0.00  0.00    -0.480 OA
ATOM     26  H   UNL     1     -34.532  -9.727  20.296  0.00  0.00    +0.295 HD
ENDBRANCH  24  25
ENDBRANCH  16  24
ENDBRANCH  15  16
ENDBRANCH   1  15
TORSDOF 7
ENDMDL
