MODEL 1
REMARK VINA RESULT:    -5.028      0.000      0.000
REMARK INTER + INTRA:          -6.397
REMARK INTER:                  -6.498
REMARK INTRA:                   0.101
REMARK UNBOUND:                 0.101
REMARK  Name = 
REMARK  7 active torsions:
REMARK  status: ('A' for Active; 'I' for Inactive)
REMARK    1  A    between atoms: C_1  and  C_2
REMARK    2  A    between atoms: C_5  and  N_8
REMARK    3  A    between atoms: C_9  and  C_11
REMARK    4  A    between atoms: N_15  and  C_16
REMARK    5  A    between atoms: C_16  and  C_17
REMARK    6  A    between atoms: N_19  and  C_20
REMARK    7  A    between atoms: C_25  and  C_26
REMARK                            x       y       z     vdW  Elec       q    Type
REMARK                         _______ _______ _______ _____ _____    ______ ____
ROOT
ATOM      1  C   UNL     1     -30.906 -10.124  18.246  0.00  0.00    +0.089 C 
ATOM      2  C   UNL     1     -31.420  -8.800  18.821  0.00  0.00    +0.015 C 
ATOM      3  C   UNL     1     -32.356  -8.999  20.022  0.00  0.00    +0.016 C 
ATOM      4  C   UNL     1     -33.178 -10.303  19.955  0.00  0.00    +0.085 C 
ATOM      5  N   UNL     1     -33.352 -10.815  18.581  0.00  0.00    -0.293 NA
ATOM      6  C   UNL     1     -32.066 -11.103  17.896  0.00  0.00    +0.097 C 
ENDROOT
BRANCH   1   8
ATOM      7  N   UNL     1     -29.299 -12.015  18.835  0.00  0.00    -0.270 N 
ATOM      8  C   UNL     1     -29.868 -10.736  19.164  0.00  0.00    +0.223 C 
ATOM      9  O   UNL     1     -29.463 -10.098  20.173  0.00  0.00    -0.275 OA
ATOM     10  H   UNL     1     -29.600 -12.465  17.942  0.00  0.00    +0.156 HD
BRANCH   7  15
ATOM     11  C   UNL     1     -25.424 -14.733  22.062  0.00  0.00    +0.045 C 
ATOM     12  C   UNL     1     -26.455 -14.052  21.212  0.00  0.00    -0.032 A 
ATOM     13  C   UNL     1     -27.808 -14.069  21.574  0.00  0.00    +0.008 A 
ATOM     14  C   UNL     1     -28.751 -13.402  20.788  0.00  0.00    +0.044 A 
ATOM     15  C   UNL     1     -28.332 -12.707  19.646  0.00  0.00    +0.125 A 
ATOM     16  N   UNL     1     -27.007 -12.687  19.326  0.00  0.00    -0.240 NA
ATOM     17  C   UNL     1     -26.071 -13.330  20.073  0.00  0.00    +0.116 A 
ENDBRANCH   7  15
ENDBRANCH   1   8
BRANCH   5  18
ATOM     18  C   UNL     1     -34.304 -10.017  17.778  0.00  0.00    +0.180 C 
BRANCH  18  19
ATOM     19  C   UNL     1     -34.142 -10.344  16.324  0.00  0.00    +0.231 C 
ATOM     20  O   UNL     1     -34.101  -9.404  15.483  0.00  0.00    -0.274 OA
ATOM     21  N   UNL     1     -34.051 -11.710  15.891  0.00  0.00    -0.284 N 
ATOM     22  H   UNL     1     -34.320 -12.463  16.564  0.00  0.00    +0.155 HD
BRANCH  21  23
ATOM     23  C   UNL     1     -33.665 -12.089  14.559  0.00  0.00    +0.036 A 
ATOM     24  C   UNL     1     -34.460 -11.712  13.462  0.00  0.00    +0.023 A 
ATOM     25  C   UNL     1     -34.075 -12.040  12.160  0.00  0.00    +0.002 A 
ATOM     26  C   UNL     1     -32.889 -12.739  11.938  0.00  0.00    +0.000 A 
ATOM     27  C   UNL     1     -32.082 -13.112  13.015  0.00  0.00    +0.005 A 
ATOM     28  C   UNL     1     -32.462 -12.797  14.331  0.00  0.00    -0.029 A 
ATOM     29  C   UNL     1     -31.575 -13.206  15.475  0.00  0.00    +0.045 C 
ENDBRANCH  21  23
ENDBRANCH  18  19
ENDBRANCH   5  18
TORSDOF 5
ENDMDL
MODEL 2
REMARK VINA RESULT:    -4.322      2.482      5.461
REMARK INTER + INTRA:          -5.485
REMARK INTER:                  -4.788
REMARK INTRA:                  -0.696
REMARK UNBOUND:                 0.101
REMARK  Name = 
REMARK  7 active torsions:
REMARK  status: ('A' for Active; 'I' for Inactive)
REMARK    1  A    between atoms: C_1  and  C_2
REMARK    2  A    between atoms: C_5  and  N_8
REMARK    3  A    between atoms: C_9  and  C_11
REMARK    4  A    between atoms: N_15  and  C_16
REMARK    5  A    between atoms: C_16  and  C_17
REMARK    6  A    between atoms: N_19  and  C_20
REMARK    7  A    between atoms: C_25  and  C_26
REMARK                            x       y       z     vdW  Elec       q    Type
REMARK                         _______ _______ _______ _____ _____    ______ ____
ROOT
ATOM      1  C   UNL     1     -32.172 -12.020  18.333  0.00  0.00    +0.089 C 
ATOM      2  C   UNL     1     -32.771 -12.642  17.066  0.00  0.00    +0.015 C 
ATOM      3  C   UNL     1     -31.915 -12.380  15.818  0.00  0.00    +0.016 C 
ATOM      4  C   UNL     1     -31.153 -11.040  15.860  0.00  0.00    +0.085 C 
ATOM      5  N   UNL     1     -31.775 -10.041  16.752  0.00  0.00    -0.293 NA
ATOM      6  C   UNL     1     -31.881 -10.500  18.161  0.00  0.00    +0.097 C 
ENDROOT
BRANCH   1   8
ATOM      7  N   UNL     1     -29.956 -12.160  19.589  0.00  0.00    -0.270 N 
ATOM      8  C   UNL     1     -30.964 -12.809  18.793  0.00  0.00    +0.223 C 
ATOM      9  O   UNL     1     -30.877 -14.040  18.533  0.00  0.00    -0.275 OA
ATOM     10  H   UNL     1     -30.115 -11.162  19.854  0.00  0.00    +0.156 HD
BRANCH   7  15
ATOM     11  C   UNL     1     -25.187 -14.739  21.438  0.00  0.00    +0.045 C 
ATOM     12  C   UNL     1     -26.422 -14.033  20.963  0.00  0.00    -0.032 A 
ATOM     13  C   UNL     1     -26.356 -13.094  19.923  0.00  0.00    +0.008 A 
ATOM     14  C   UNL     1     -27.521 -12.470  19.471  0.00  0.00    +0.044 A 
ATOM     15  C   UNL     1     -28.753 -12.797  20.054  0.00  0.00    +0.125 A 
ATOM     16  N   UNL     1     -28.794 -13.728  21.049  0.00  0.00    -0.240 NA
ATOM     17  C   UNL     1     -27.674 -14.348  21.508  0.00  0.00    +0.116 A 
ENDBRANCH   7  15
ENDBRANCH   1   8
BRANCH   5  18
ATOM     18  C   UNL     1     -33.023  -9.467  16.204  0.00  0.00    +0.180 C 
BRANCH  18  19
ATOM     19  C   UNL     1     -33.837  -8.867  17.311  0.00  0.00    +0.231 C 
ATOM     20  O   UNL     1     -34.953  -9.377  17.600  0.00  0.00    -0.274 OA
ATOM     21  N   UNL     1     -33.358  -7.715  18.024  0.00  0.00    -0.284 N 
ATOM     22  H   UNL     1     -32.558  -7.178  17.618  0.00  0.00    +0.155 HD
BRANCH  21  23
ATOM     23  C   UNL     1     -33.964  -7.233  19.235  0.00  0.00    +0.036 A 
ATOM     24  C   UNL     1     -34.049  -8.070  20.362  0.00  0.00    +0.023 A 
ATOM     25  C   UNL     1     -34.598  -7.600  21.556  0.00  0.00    +0.002 A 
ATOM     26  C   UNL     1     -35.061  -6.287  21.643  0.00  0.00    +0.000 A 
ATOM     27  C   UNL     1     -34.975  -5.439  20.537  0.00  0.00    +0.005 A 
ATOM     28  C   UNL     1     -34.433  -5.901  19.325  0.00  0.00    -0.029 A 
ATOM     29  C   UNL     1     -34.347  -4.968  18.149  0.00  0.00    +0.045 C 
ENDBRANCH  21  23
ENDBRANCH  18  19
ENDBRANCH   5  18
TORSDOF 5
ENDMDL
MODEL 3
REMARK VINA RESULT:    -3.677      2.646      6.231
REMARK INTER + INTRA:          -4.651
REMARK INTER:                  -4.244
REMARK INTRA:                  -0.407
REMARK UNBOUND:                 0.101
REMARK  Name = 
REMARK  7 active torsions:
REMARK  status: ('A' for Active; 'I' for Inactive)
REMARK    1  A    between atoms: C_1  and  C_2
REMARK    2  A    between atoms: C_5  and  N_8
REMARK    3  A    between atoms: C_9  and  C_11
REMARK    4  A    between atoms: N_15  and  C_16
REMARK    5  A    between atoms: C_16  and  C_17
REMARK    6  A    between atoms: N_19  and  C_20
REMARK    7  A    between atoms: C_25  and  C_26
REMARK                            x       y       z     vdW  Elec       q    Type
REMARK                         _______ _______ _______ _____ _____    ______ ____
ROOT
ATOM      1  C   UNL     1     -31.363 -11.065  18.107  0.00  0.00    +0.089 C 
ATOM      2  C   UNL     1     -32.088 -12.231  18.788  0.00  0.00    +0.015 C 
ATOM      3  C   UNL     1     -31.553 -12.517  20.200  0.00  0.00    +0.016 C 
ATOM      4  C   UNL     1     -30.053 -12.198  20.368  0.00  0.00    +0.085 C 
ATOM      5  N   UNL     1     -29.302 -12.225  19.097  0.00  0.00    -0.293 NA
ATOM      6  C   UNL     1     -29.819 -11.260  18.092  0.00  0.00    +0.097 C 
ENDROOT
BRANCH   1   8
ATOM      7  N   UNL     1     -32.943  -9.701  19.573  0.00  0.00    -0.270 N 
ATOM      8  C   UNL     1     -31.790  -9.745  18.715  0.00  0.00    +0.223 C 
ATOM      9  O   UNL     1     -31.101  -8.707  18.518  0.00  0.00    -0.275 OA
ATOM     10  H   UNL     1     -33.430 -10.602  19.779  0.00  0.00    +0.156 HD
BRANCH   7  15
ATOM     11  C   UNL     1     -35.048  -4.944  21.974  0.00  0.00    +0.045 C 
ATOM     12  C   UNL     1     -34.465  -6.174  21.344  0.00  0.00    -0.032 A 
ATOM     13  C   UNL     1     -33.436  -6.885  21.977  0.00  0.00    +0.008 A 
ATOM     14  C   UNL     1     -32.927  -8.047  21.392  0.00  0.00    +0.044 A 
ATOM     15  C   UNL     1     -33.460  -8.502  20.178  0.00  0.00    +0.125 A 
ATOM     16  N   UNL     1     -34.475  -7.805  19.592  0.00  0.00    -0.240 NA
ATOM     17  C   UNL     1     -34.986  -6.670  20.141  0.00  0.00    +0.116 A 
ENDBRANCH   7  15
ENDBRANCH   1   8
BRANCH   5  18
ATOM     18  C   UNL     1     -29.090 -13.592  18.574  0.00  0.00    +0.180 C 
BRANCH  18  19
ATOM     19  C   UNL     1     -29.000 -13.558  17.079  0.00  0.00    +0.231 C 
ATOM     20  O   UNL     1     -27.894 -13.286  16.535  0.00  0.00    -0.274 OA
ATOM     21  N   UNL     1     -30.161 -13.815  16.273  0.00  0.00    -0.284 N 
ATOM     22  H   UNL     1     -31.098 -13.804  16.737  0.00  0.00    +0.155 HD
BRANCH  21  23
ATOM     23  C   UNL     1     -30.101 -14.029  14.853  0.00  0.00    +0.036 A 
ATOM     24  C   UNL     1     -29.072 -14.813  14.302  0.00  0.00    +0.023 A 
ATOM     25  C   UNL     1     -29.027 -15.060  12.928  0.00  0.00    +0.002 A 
ATOM     26  C   UNL     1     -30.011 -14.536  12.091  0.00  0.00    +0.000 A 
ATOM     27  C   UNL     1     -31.046 -13.764  12.623  0.00  0.00    +0.005 A 
ATOM     28  C   UNL     1     -31.099 -13.498  14.002  0.00  0.00    -0.029 A 
ATOM     29  C   UNL     1     -32.226 -12.667  14.553  0.00  0.00    +0.045 C 
ENDBRANCH  21  23
ENDBRANCH  18  19
ENDBRANCH   5  18
TORSDOF 5
ENDMDL
MODEL 4
REMARK VINA RESULT:    -3.512      2.619      5.915
REMARK INTER + INTRA:          -4.438
REMARK INTER:                  -4.732
REMARK INTRA:                   0.294
REMARK UNBOUND:                 0.101
REMARK  Name = 
REMARK  7 active torsions:
REMARK  status: ('A' for Active; 'I' for Inactive)
REMARK    1  A    between atoms: C_1  and  C_2
REMARK    2  A    between atoms: C_5  and  N_8
REMARK    3  A    between atoms: C_9  and  C_11
REMARK    4  A    between atoms: N_15  and  C_16
REMARK    5  A    between atoms: C_16  and  C_17
REMARK    6  A    between atoms: N_19  and  C_20
REMARK    7  A    between atoms: C_25  and  C_26
REMARK                            x       y       z     vdW  Elec       q    Type
REMARK                         _______ _______ _______ _____ _____    ______ ____
ROOT
ATOM      1  C   UNL     1     -31.720 -11.291  17.909  0.00  0.00    +0.089 C 
ATOM      2  C   UNL     1     -31.819 -12.415  18.946  0.00  0.00    +0.015 C 
ATOM      3  C   UNL     1     -30.689 -12.364  19.984  0.00  0.00    +0.016 C 
ATOM      4  C   UNL     1     -29.365 -11.798  19.430  0.00  0.00    +0.085 C 
ATOM      5  N   UNL     1     -29.238 -11.933  17.964  0.00  0.00    -0.293 NA
ATOM      6  C   UNL     1     -30.326 -11.249  17.217  0.00  0.00    +0.097 C 
ENDROOT
BRANCH   1   8
ATOM      7  N   UNL     1     -33.089  -9.939  19.583  0.00  0.00    -0.270 N 
ATOM      8  C   UNL     1     -32.119  -9.965  18.521  0.00  0.00    +0.223 C 
ATOM      9  O   UNL     1     -31.558  -8.900  18.144  0.00  0.00    -0.275 OA
ATOM     10  H   UNL     1     -33.461 -10.854  19.923  0.00  0.00    +0.156 HD
BRANCH   7  15
ATOM     11  C   UNL     1     -35.013  -5.146  22.062  0.00  0.00    +0.045 C 
ATOM     12  C   UNL     1     -34.493  -6.409  21.443  0.00  0.00    -0.032 A 
ATOM     13  C   UNL     1     -34.851  -7.662  21.961  0.00  0.00    +0.008 A 
ATOM     14  C   UNL     1     -34.385  -8.829  21.352  0.00  0.00    +0.044 A 
ATOM     15  C   UNL     1     -33.569  -8.739  20.217  0.00  0.00    +0.125 A 
ATOM     16  N   UNL     1     -33.251  -7.510  19.719  0.00  0.00    -0.240 NA
ATOM     17  C   UNL     1     -33.691  -6.360  20.295  0.00  0.00    +0.116 A 
ENDBRANCH   7  15
ENDBRANCH   1   8
BRANCH   5  18
ATOM     18  C   UNL     1     -28.981 -13.323  17.528  0.00  0.00    +0.180 C 
BRANCH  18  19
ATOM     19  C   UNL     1     -29.920 -13.690  16.419  0.00  0.00    +0.231 C 
ATOM     20  O   UNL     1     -30.863 -14.495  16.652  0.00  0.00    -0.274 OA
ATOM     21  N   UNL     1     -29.740 -13.145  15.102  0.00  0.00    -0.284 N 
ATOM     22  H   UNL     1     -28.832 -12.678  14.879  0.00  0.00    +0.155 HD
BRANCH  21  23
ATOM     23  C   UNL     1     -30.723 -13.265  14.060  0.00  0.00    +0.036 A 
ATOM     24  C   UNL     1     -31.882 -12.469  14.092  0.00  0.00    +0.023 A 
ATOM     25  C   UNL     1     -32.825 -12.547  13.065  0.00  0.00    +0.002 A 
ATOM     26  C   UNL     1     -32.618 -13.413  11.991  0.00  0.00    +0.000 A 
ATOM     27  C   UNL     1     -31.468 -14.202  11.938  0.00  0.00    +0.005 A 
ATOM     28  C   UNL     1     -30.514 -14.142  12.970  0.00  0.00    -0.029 A 
ATOM     29  C   UNL     1     -29.281 -14.999  12.889  0.00  0.00    +0.045 C 
ENDBRANCH  21  23
ENDBRANCH  18  19
ENDBRANCH   5  18
TORSDOF 5
ENDMDL
MODEL 5
REMARK VINA RESULT:    -3.272      2.834      6.554
REMARK INTER + INTRA:          -4.128
REMARK INTER:                  -3.744
REMARK INTRA:                  -0.384
REMARK UNBOUND:                 0.101
REMARK  Name = 
REMARK  7 active torsions:
REMARK  status: ('A' for Active; 'I' for Inactive)
REMARK    1  A    between atoms: C_1  and  C_2
REMARK    2  A    between atoms: C_5  and  N_8
REMARK    3  A    between atoms: C_9  and  C_11
REMARK    4  A    between atoms: N_15  and  C_16
REMARK    5  A    between atoms: C_16  and  C_17
REMARK    6  A    between atoms: N_19  and  C_20
REMARK    7  A    between atoms: C_25  and  C_26
REMARK                            x       y       z     vdW  Elec       q    Type
REMARK                         _______ _______ _______ _____ _____    ______ ____
ROOT
ATOM      1  C   UNL     1     -30.229 -10.436  18.840  0.00  0.00    +0.089 C 
ATOM      2  C   UNL     1     -29.375 -10.856  20.041  0.00  0.00    +0.015 C 
ATOM      3  C   UNL     1     -29.854 -12.170  20.676  0.00  0.00    +0.016 C 
ATOM      4  C   UNL     1     -31.376 -12.394  20.562  0.00  0.00    +0.085 C 
ATOM      5  N   UNL     1     -32.141 -11.141  20.396  0.00  0.00    -0.293 NA
ATOM      6  C   UNL     1     -31.745 -10.369  19.189  0.00  0.00    +0.097 C 
ENDROOT
BRANCH   1   8
ATOM      7  N   UNL     1     -30.984 -11.613  16.707  0.00  0.00    -0.270 N 
ATOM      8  C   UNL     1     -29.933 -11.315  17.642  0.00  0.00    +0.223 C 
ATOM      9  O   UNL     1     -28.759 -11.728  17.436  0.00  0.00    -0.275 OA
ATOM     10  H   UNL     1     -31.919 -11.176  16.871  0.00  0.00    +0.156 HD
BRANCH   7  15
ATOM     11  C   UNL     1     -30.371 -15.027  12.147  0.00  0.00    +0.045 C 
ATOM     12  C   UNL     1     -30.524 -14.106  13.321  0.00  0.00    -0.032 A 
ATOM     13  C   UNL     1     -31.486 -13.087  13.312  0.00  0.00    +0.008 A 
ATOM     14  C   UNL     1     -31.637 -12.259  14.427  0.00  0.00    +0.044 A 
ATOM     15  C   UNL     1     -30.830 -12.461  15.554  0.00  0.00    +0.125 A 
ATOM     16  N   UNL     1     -29.915 -13.472  15.547  0.00  0.00    -0.240 NA
ATOM     17  C   UNL     1     -29.748 -14.290  14.474  0.00  0.00    +0.116 A 
ENDBRANCH   7  15
ENDBRANCH   1   8
BRANCH   5  18
ATOM     18  C   UNL     1     -32.217 -10.337  21.635  0.00  0.00    +0.180 C 
BRANCH  18  19
ATOM     19  C   UNL     1     -32.684  -8.949  21.313  0.00  0.00    +0.231 C 
ATOM     20  O   UNL     1     -31.957  -7.967  21.625  0.00  0.00    -0.274 OA
ATOM     21  N   UNL     1     -33.952  -8.739  20.671  0.00  0.00    -0.284 N 
ATOM     22  H   UNL     1     -34.629  -9.534  20.638  0.00  0.00    +0.155 HD
BRANCH  21  23
ATOM     23  C   UNL     1     -34.356  -7.471  20.127  0.00  0.00    +0.036 A 
ATOM     24  C   UNL     1     -34.598  -6.382  20.983  0.00  0.00    +0.023 A 
ATOM     25  C   UNL     1     -34.953  -5.136  20.463  0.00  0.00    +0.002 A 
ATOM     26  C   UNL     1     -35.062  -4.959  19.084  0.00  0.00    +0.000 A 
ATOM     27  C   UNL     1     -34.815  -6.027  18.219  0.00  0.00    +0.005 A 
ATOM     28  C   UNL     1     -34.467  -7.290  18.728  0.00  0.00    -0.029 A 
ATOM     29  C   UNL     1     -34.202  -8.424  17.776  0.00  0.00    +0.045 C 
ENDBRANCH  21  23
ENDBRANCH  18  19
ENDBRANCH   5  18
TORSDOF 5
ENDMDL
MODEL 6
REMARK VINA RESULT:    -3.043      1.434      2.152
REMARK INTER + INTRA:          -3.832
REMARK INTER:                  -4.558
REMARK INTRA:                   0.726
REMARK UNBOUND:                 0.101
REMARK  Name = 
REMARK  7 active torsions:
REMARK  status: ('A' for Active; 'I' for Inactive)
REMARK    1  A    between atoms: C_1  and  C_2
REMARK    2  A    between atoms: C_5  and  N_8
REMARK    3  A    between atoms: C_9  and  C_11
REMARK    4  A    between atoms: N_15  and  C_16
REMARK    5  A    between atoms: C_16  and  C_17
REMARK    6  A    between atoms: N_19  and  C_20
REMARK    7  A    between atoms: C_25  and  C_26
REMARK                            x       y       z     vdW  Elec       q    Type
REMARK                         _______ _______ _______ _____ _____    ______ ____
ROOT
ATOM      1  C   UNL     1     -31.862 -10.547  20.587  0.00  0.00    +0.089 C 
ATOM      2  C   UNL     1     -32.727 -11.610  19.900  0.00  0.00    +0.015 C 
ATOM      3  C   UNL     1     -32.443 -11.720  18.395  0.00  0.00    +0.016 C 
ATOM      4  C   UNL     1     -32.013 -10.388  17.747  0.00  0.00    +0.085 C 
ATOM      5  N   UNL     1     -32.471  -9.199  18.493  0.00  0.00    -0.293 NA
ATOM      6  C   UNL     1     -31.973  -9.158  19.892  0.00  0.00    +0.097 C 
ENDROOT
BRANCH   1   8
ATOM      7  N   UNL     1     -30.149 -12.436  20.627  0.00  0.00    -0.270 N 
ATOM      8  C   UNL     1     -30.433 -11.030  20.724  0.00  0.00    +0.223 C 
ATOM      9  O   UNL     1     -29.495 -10.198  20.859  0.00  0.00    -0.275 OA
ATOM     10  H   UNL     1     -30.947 -13.080  20.426  0.00  0.00    +0.156 HD
BRANCH   7  15
ATOM     11  C   UNL     1     -24.954 -14.774  21.228  0.00  0.00    +0.045 C 
ATOM     12  C   UNL     1     -26.299 -14.131  21.067  0.00  0.00    -0.032 A 
ATOM     13  C   UNL     1     -26.626 -13.435  19.895  0.00  0.00    +0.008 A 
ATOM     14  C   UNL     1     -27.894 -12.870  19.749  0.00  0.00    +0.044 A 
ATOM     15  C   UNL     1     -28.839 -13.013  20.774  0.00  0.00    +0.125 A 
ATOM     16  N   UNL     1     -28.504 -13.712  21.896  0.00  0.00    -0.240 NA
ATOM     17  C   UNL     1     -27.276 -14.270  22.062  0.00  0.00    +0.116 A 
ENDBRANCH   7  15
ENDBRANCH   1   8
BRANCH   5  18
ATOM     18  C   UNL     1     -33.923  -8.950  18.356  0.00  0.00    +0.180 C 
BRANCH  18  19
ATOM     19  C   UNL     1     -34.322  -9.046  16.914  0.00  0.00    +0.231 C 
ATOM     20  O   UNL     1     -34.712  -8.008  16.314  0.00  0.00    -0.274 OA
ATOM     21  N   UNL     1     -34.276 -10.307  16.228  0.00  0.00    -0.284 N 
ATOM     22  H   UNL     1     -34.179 -11.178  16.798  0.00  0.00    +0.155 HD
BRANCH  21  23
ATOM     23  C   UNL     1     -34.416 -10.433  14.803  0.00  0.00    +0.036 A 
ATOM     24  C   UNL     1     -34.958  -9.373  14.053  0.00  0.00    +0.023 A 
ATOM     25  C   UNL     1     -35.062  -9.468  12.664  0.00  0.00    +0.002 A 
ATOM     26  C   UNL     1     -34.621 -10.616  12.007  0.00  0.00    +0.000 A 
ATOM     27  C   UNL     1     -34.071 -11.673  12.735  0.00  0.00    +0.005 A 
ATOM     28  C   UNL     1     -33.969 -11.597  14.135  0.00  0.00    -0.029 A 
ATOM     29  C   UNL     1     -33.370 -12.746  14.897  0.00  0.00    +0.045 C 
ENDBRANCH  21  23
ENDBRANCH  18  19
ENDBRANCH   5  18
TORSDOF 5
ENDMDL
MODEL 7
REMARK VINA RESULT:    -3.034      1.915      4.329
REMARK INTER + INTRA:          -3.820
REMARK INTER:                  -4.318
REMARK INTRA:                   0.497
REMARK UNBOUND:                 0.101
REMARK  Name = 
REMARK  7 active torsions:
REMARK  status: ('A' for Active; 'I' for Inactive)
REMARK    1  A    between atoms: C_1  and  C_2
REMARK    2  A    between atoms: C_5  and  N_8
REMARK    3  A    between atoms: C_9  and  C_11
REMARK    4  A    between atoms: N_15  and  C_16
REMARK    5  A    between atoms: C_16  and  C_17
REMARK    6  A    between atoms: N_19  and  C_20
REMARK    7  A    between atoms: C_25  and  C_26
REMARK                            x       y       z     vdW  Elec       q    Type
REMARK                         _______ _______ _______ _____ _____    ______ ____
ROOT
ATOM      1  C   UNL     1     -31.308 -12.219  17.505  0.00  0.00    +0.089 C 
ATOM      2  C   UNL     1     -32.100 -13.516  17.300  0.00  0.00    +0.015 C 
ATOM      3  C   UNL     1     -31.569 -14.353  16.127  0.00  0.00    +0.016 C 
ATOM      4  C   UNL     1     -30.961 -13.508  14.989  0.00  0.00    +0.085 C 
ATOM      5  N   UNL     1     -31.475 -12.124  14.949  0.00  0.00    -0.293 NA
ATOM      6  C   UNL     1     -31.223 -11.369  16.203  0.00  0.00    +0.097 C 
ENDROOT
BRANCH   1   8
ATOM      7  N   UNL     1     -29.874 -13.264  19.338  0.00  0.00    -0.270 N 
ATOM      8  C   UNL     1     -29.953 -12.514  18.114  0.00  0.00    +0.223 C 
ATOM      9  O   UNL     1     -28.902 -12.156  17.515  0.00  0.00    -0.275 OA
ATOM     10  H   UNL     1     -30.768 -13.616  19.750  0.00  0.00    +0.156 HD
BRANCH   7  15
ATOM     11  C   UNL     1     -24.974 -14.457  22.054  0.00  0.00    +0.045 C 
ATOM     12  C   UNL     1     -26.267 -14.178  21.347  0.00  0.00    -0.032 A 
ATOM     13  C   UNL     1     -27.494 -14.343  22.005  0.00  0.00    +0.008 A 
ATOM     14  C   UNL     1     -28.687 -14.048  21.342  0.00  0.00    +0.044 A 
ATOM     15  C   UNL     1     -28.648 -13.574  20.024  0.00  0.00    +0.125 A 
ATOM     16  N   UNL     1     -27.441 -13.402  19.412  0.00  0.00    -0.240 NA
ATOM     17  C   UNL     1     -26.267 -13.684  20.036  0.00  0.00    +0.116 A 
ENDBRANCH   7  15
ENDBRANCH   1   8
BRANCH   5  18
ATOM     18  C   UNL     1     -32.866 -12.033  14.453  0.00  0.00    +0.180 C 
BRANCH  18  19
ATOM     19  C   UNL     1     -33.648 -11.079  15.304  0.00  0.00    +0.231 C 
ATOM     20  O   UNL     1     -34.737 -11.459  15.813  0.00  0.00    -0.274 OA
ATOM     21  N   UNL     1     -33.171  -9.742  15.525  0.00  0.00    -0.284 N 
ATOM     22  H   UNL     1     -32.404  -9.382  14.913  0.00  0.00    +0.155 HD
BRANCH  21  23
ATOM     23  C   UNL     1     -33.738  -8.857  16.506  0.00  0.00    +0.036 A 
ATOM     24  C   UNL     1     -33.435  -9.029  17.868  0.00  0.00    +0.023 A 
ATOM     25  C   UNL     1     -33.947  -8.152  18.826  0.00  0.00    +0.002 A 
ATOM     26  C   UNL     1     -34.760  -7.088  18.435  0.00  0.00    +0.000 A 
ATOM     27  C   UNL     1     -35.062  -6.896  17.086  0.00  0.00    +0.005 A 
ATOM     28  C   UNL     1     -34.562  -7.776  16.111  0.00  0.00    -0.029 A 
ATOM     29  C   UNL     1     -34.898  -7.547  14.663  0.00  0.00    +0.045 C 
ENDBRANCH  21  23
ENDBRANCH  18  19
ENDBRANCH   5  18
TORSDOF 5
ENDMDL
MODEL 8
REMARK VINA RESULT:    -2.164      2.818      5.994
REMARK INTER + INTRA:          -2.696
REMARK INTER:                  -4.643
REMARK INTRA:                   1.947
REMARK UNBOUND:                 0.101
REMARK  Name = 
REMARK  7 active torsions:
REMARK  status: ('A' for Active; 'I' for Inactive)
REMARK    1  A    between atoms: C_1  and  C_2
REMARK    2  A    between atoms: C_5  and  N_8
REMARK    3  A    between atoms: C_9  and  C_11
REMARK    4  A    between atoms: N_15  and  C_16
REMARK    5  A    between atoms: C_16  and  C_17
REMARK    6  A    between atoms: N_19  and  C_20
REMARK    7  A    between atoms: C_25  and  C_26
REMARK                            x       y       z     vdW  Elec       q    Type
REMARK                         _______ _______ _______ _____ _____    ______ ____
ROOT
ATOM      1  C   UNL     1     -29.468 -10.750  19.929  0.00  0.00    +0.089 C 
ATOM      2  C   UNL     1     -28.960 -10.219  18.584  0.00  0.00    +0.015 C 
ATOM      3  C   UNL     1     -29.921 -10.527  17.426  0.00  0.00    +0.016 C 
ATOM      4  C   UNL     1     -30.710 -11.840  17.608  0.00  0.00    +0.085 C 
ATOM      5  N   UNL     1     -30.042 -12.804  18.506  0.00  0.00    -0.293 NA
ATOM      6  C   UNL     1     -29.809 -12.268  19.872  0.00  0.00    +0.097 C 
ENDROOT
BRANCH   1   8
ATOM      7  N   UNL     1     -30.874  -8.624  19.830  0.00  0.00    -0.270 N 
ATOM      8  C   UNL     1     -30.615  -9.901  20.438  0.00  0.00    +0.223 C 
ATOM      9  O   UNL     1     -31.373 -10.342  21.344  0.00  0.00    -0.275 OA
ATOM     10  H   UNL     1     -30.275  -8.339  19.023  0.00  0.00    +0.156 HD
BRANCH   7  15
ATOM     11  C   UNL     1     -34.970  -4.991  21.516  0.00  0.00    +0.045 C 
ATOM     12  C   UNL     1     -33.922  -5.967  21.072  0.00  0.00    -0.032 A 
ATOM     13  C   UNL     1     -34.008  -6.593  19.821  0.00  0.00    +0.008 A 
ATOM     14  C   UNL     1     -33.006  -7.475  19.411  0.00  0.00    +0.044 A 
ATOM     15  C   UNL     1     -31.912  -7.719  20.250  0.00  0.00    +0.125 A 
ATOM     16  N   UNL     1     -31.839  -7.082  21.454  0.00  0.00    -0.240 NA
ATOM     17  C   UNL     1     -32.802  -6.221  21.877  0.00  0.00    +0.116 A 
ENDBRANCH   7  15
ENDBRANCH   1   8
BRANCH   5  18
ATOM     18  C   UNL     1     -28.857 -13.444  17.894  0.00  0.00    +0.180 C 
BRANCH  18  19
ATOM     19  C   UNL     1     -29.109 -13.695  16.438  0.00  0.00    +0.231 C 
ATOM     20  O   UNL     1     -28.277 -14.376  15.779  0.00  0.00    -0.274 OA
ATOM     21  N   UNL     1     -30.276 -13.155  15.798  0.00  0.00    -0.284 N 
ATOM     22  H   UNL     1     -30.816 -12.412  16.297  0.00  0.00    +0.155 HD
BRANCH  21  23
ATOM     23  C   UNL     1     -30.701 -13.544  14.481  0.00  0.00    +0.036 A 
ATOM     24  C   UNL     1     -30.076 -14.622  13.829  0.00  0.00    +0.023 A 
ATOM     25  C   UNL     1     -30.506 -15.034  12.566  0.00  0.00    +0.002 A 
ATOM     26  C   UNL     1     -31.571 -14.382  11.944  0.00  0.00    +0.000 A 
ATOM     27  C   UNL     1     -32.209 -13.316  12.581  0.00  0.00    +0.005 A 
ATOM     28  C   UNL     1     -31.781 -12.884  13.848  0.00  0.00    -0.029 A 
ATOM     29  C   UNL     1     -32.487 -11.736  14.516  0.00  0.00    +0.045 C 
ENDBRANCH  21  23
ENDBRANCH  18  19
ENDBRANCH   5  18
TORSDOF 5
ENDMDL
