MODEL 1
REMARK VINA RESULT:    -5.002      0.000      0.000
REMARK INTER + INTRA:          -6.521
REMARK INTER:                  -5.879
REMARK INTRA:                  -0.641
REMARK UNBOUND:                -0.641
REMARK  Name = 
REMARK  4 active torsions:
REMARK  status: ('A' for Active; 'I' for Inactive)
REMARK    1  A    between atoms: C_1  and  C_2
REMARK    2  A    between atoms: C_2  and  C_3
REMARK    3  A    between atoms: C_2  and  N_11
REMARK    4  A    between atoms: C_6  and  C_7
REMARK                            x       y       z     vdW  Elec       q    Type
REMARK                         _______ _______ _______ _____ _____    ______ ____
ROOT
ATOM      1  C   UNL     1     -30.845  -9.687  17.448  0.00  0.00    +0.029 C 
ATOM      2  C   UNL     1     -30.310 -11.020  16.896  0.00  0.00    +0.084 C 
ENDROOT
BRANCH   2   3
ATOM      3  N   UNL     1     -31.412 -11.835  16.320  0.00  0.00    -0.295 NA
ATOM      4  C   UNL     1     -32.496 -11.014  15.722  0.00  0.00    +0.089 C 
ATOM      5  C   UNL     1     -32.599 -11.420  14.260  0.00  0.00    +0.011 C 
ATOM      6  C   UNL     1     -33.980 -11.374  13.599  0.00  0.00    +0.032 C 
ATOM      7  C   UNL     1     -33.936 -12.085  12.257  0.00  0.00    -0.031 C 
ATOM      8  C   UNL     1     -32.978 -12.991  11.938  0.00  0.00    -0.031 C 
ATOM      9  C   UNL     1     -31.786 -13.279  12.837  0.00  0.00    +0.032 C 
ATOM     10  C   UNL     1     -32.099 -12.837  14.271  0.00  0.00    +0.011 C 
ATOM     11  C   UNL     1     -30.952 -12.752  15.252  0.00  0.00    +0.089 C 
ENDBRANCH   2   3
BRANCH   2  12
ATOM     12  C   UNL     1     -29.615 -11.757  18.031  0.00  0.00    -0.030 A 
ATOM     13  C   UNL     1     -30.366 -12.499  18.958  0.00  0.00    +0.006 A 
ATOM     14  C   UNL     1     -29.731 -13.183  19.999  0.00  0.00    +0.019 A 
ATOM     15  C   UNL     1     -28.336 -13.138  20.121  0.00  0.00    +0.052 A 
ATOM     16  C   UNL     1     -27.580 -12.407  19.197  0.00  0.00    +0.019 A 
ATOM     17  C   UNL     1     -28.214 -11.724  18.157  0.00  0.00    +0.006 A 
BRANCH  15  18
ATOM     18  C   UNL     1     -27.683 -13.843  21.193  0.00  0.00    +0.099 C 
ATOM     19  N   UNL     1     -27.158 -14.409  22.055  0.00  0.00    -0.191 NA
ENDBRANCH  15  18
ENDBRANCH   2  12
TORSDOF 3
ENDMDL
MODEL 2
REMARK VINA RESULT:    -4.936      1.085      1.945
REMARK INTER + INTRA:          -6.443
REMARK INTER:                  -5.972
REMARK INTRA:                  -0.470
REMARK UNBOUND:                -0.641
REMARK  Name = 
REMARK  4 active torsions:
REMARK  status: ('A' for Active; 'I' for Inactive)
REMARK    1  A    between atoms: C_1  and  C_2
REMARK    2  A    between atoms: C_2  and  C_3
REMARK    3  A    between atoms: C_2  and  N_11
REMARK    4  A    between atoms: C_6  and  C_7
REMARK                            x       y       z     vdW  Elec       q    Type
REMARK                         _______ _______ _______ _____ _____    ______ ____
ROOT
ATOM      1  C   UNL     1     -32.007 -12.923  18.022  0.00  0.00    +0.029 C 
ATOM      2  C   UNL     1     -31.016 -11.778  17.743  0.00  0.00    +0.084 C 
ENDROOT
BRANCH   2   3
ATOM      3  N   UNL     1     -30.869 -11.550  16.281  0.00  0.00    -0.295 NA
ATOM      4  C   UNL     1     -30.610 -12.798  15.518  0.00  0.00    +0.089 C 
ATOM      5  C   UNL     1     -31.734 -12.934  14.503  0.00  0.00    +0.011 C 
ATOM      6  C   UNL     1     -31.410 -13.589  13.157  0.00  0.00    +0.032 C 
ATOM      7  C   UNL     1     -32.557 -13.369  12.184  0.00  0.00    -0.031 C 
ATOM      8  C   UNL     1     -33.470 -12.378  12.339  0.00  0.00    -0.031 C 
ATOM      9  C   UNL     1     -33.512 -11.483  13.567  0.00  0.00    +0.032 C 
ATOM     10  C   UNL     1     -32.153 -11.508  14.275  0.00  0.00    +0.011 C 
ATOM     11  C   UNL     1     -32.071 -10.936  15.672  0.00  0.00    +0.089 C 
ENDBRANCH   2   3
BRANCH   2  12
ATOM     12  C   UNL     1     -29.683 -12.141  18.381  0.00  0.00    -0.030 A 
ATOM     13  C   UNL     1     -29.598 -13.219  19.277  0.00  0.00    +0.006 A 
ATOM     14  C   UNL     1     -28.374 -13.560  19.861  0.00  0.00    +0.019 A 
ATOM     15  C   UNL     1     -27.220 -12.829  19.551  0.00  0.00    +0.052 A 
ATOM     16  C   UNL     1     -27.295 -11.758  18.654  0.00  0.00    +0.019 A 
ATOM     17  C   UNL     1     -28.518 -11.416  18.070  0.00  0.00    +0.006 A 
BRANCH  15  18
ATOM     18  C   UNL     1     -25.960 -13.180  20.153  0.00  0.00    +0.099 C 
ATOM     19  N   UNL     1     -24.948 -13.462  20.637  0.00  0.00    -0.191 NA
ENDBRANCH  15  18
ENDBRANCH   2  12
TORSDOF 3
ENDMDL
MODEL 3
REMARK VINA RESULT:    -4.924      1.736      2.653
REMARK INTER + INTRA:          -6.429
REMARK INTER:                  -6.286
REMARK INTRA:                  -0.143
REMARK UNBOUND:                -0.641
REMARK  Name = 
REMARK  4 active torsions:
REMARK  status: ('A' for Active; 'I' for Inactive)
REMARK    1  A    between atoms: C_1  and  C_2
REMARK    2  A    between atoms: C_2  and  C_3
REMARK    3  A    between atoms: C_2  and  N_11
REMARK    4  A    between atoms: C_6  and  C_7
REMARK                            x       y       z     vdW  Elec       q    Type
REMARK                         _______ _______ _______ _____ _____    ______ ____
ROOT
ATOM      1  C   UNL     1     -32.206 -12.068  19.937  0.00  0.00    +0.029 C 
ATOM      2  C   UNL     1     -31.245 -12.035  18.735  0.00  0.00    +0.084 C 
ENDROOT
BRANCH   2   3
ATOM      3  N   UNL     1     -31.720 -12.937  17.653  0.00  0.00    -0.295 NA
ATOM      4  C   UNL     1     -31.918 -12.241  16.356  0.00  0.00    +0.089 C 
ATOM      5  C   UNL     1     -31.014 -12.929  15.345  0.00  0.00    +0.011 C 
ATOM      6  C   UNL     1     -31.491 -13.003  13.891  0.00  0.00    +0.032 C 
ATOM      7  C   UNL     1     -30.616 -13.967  13.107  0.00  0.00    -0.031 C 
ATOM      8  C   UNL     1     -29.866 -14.927  13.704  0.00  0.00    -0.031 C 
ATOM      9  C   UNL     1     -29.726 -15.042  15.214  0.00  0.00    +0.032 C 
ATOM     10  C   UNL     1     -30.892 -14.321  15.900  0.00  0.00    +0.011 C 
ATOM     11  C   UNL     1     -30.783 -14.052  17.383  0.00  0.00    +0.089 C 
ENDBRANCH   2   3
BRANCH   2  12
ATOM     12  C   UNL     1     -29.862 -12.439  19.224  0.00  0.00    -0.030 A 
ATOM     13  C   UNL     1     -28.715 -12.013  18.535  0.00  0.00    +0.006 A 
ATOM     14  C   UNL     1     -27.442 -12.377  18.985  0.00  0.00    +0.019 A 
ATOM     15  C   UNL     1     -27.302 -13.167  20.132  0.00  0.00    +0.052 A 
ATOM     16  C   UNL     1     -28.440 -13.591  20.828  0.00  0.00    +0.019 A 
ATOM     17  C   UNL     1     -29.712 -13.228  20.380  0.00  0.00    +0.006 A 
BRANCH  15  18
ATOM     18  C   UNL     1     -25.991 -13.542  20.595  0.00  0.00    +0.099 C 
ATOM     19  N   UNL     1     -24.938 -13.843  20.966  0.00  0.00    -0.191 NA
ENDBRANCH  15  18
ENDBRANCH   2  12
TORSDOF 3
ENDMDL
MODEL 4
REMARK VINA RESULT:    -4.661      1.612      2.609
REMARK INTER + INTRA:          -6.120
REMARK INTER:                  -5.855
REMARK INTRA:                  -0.266
REMARK UNBOUND:                -0.641
REMARK  Name = 
REMARK  4 active torsions:
REMARK  status: ('A' for Active; 'I' for Inactive)
REMARK    1  A    between atoms: C_1  and  C_2
REMARK    2  A    between atoms: C_2  and  C_3
REMARK    3  A    between atoms: C_2  and  N_11
REMARK    4  A    between atoms: C_6  and  C_7
REMARK                            x       y       z     vdW  Elec       q    Type
REMARK                         _______ _______ _______ _____ _____    ______ ____
ROOT
ATOM      1  C   UNL     1     -29.063 -15.032  14.932  0.00  0.00    +0.029 C 
ATOM      2  C   UNL     1     -30.286 -14.277  15.481  0.00  0.00    +0.084 C 
ENDROOT
BRANCH   2   3
ATOM      3  N   UNL     1     -30.650 -13.141  14.593  0.00  0.00    -0.295 NA
ATOM      4  C   UNL     1     -31.310 -13.571  13.334  0.00  0.00    +0.089 C 
ATOM      5  C   UNL     1     -32.675 -12.900  13.303  0.00  0.00    +0.011 C 
ATOM      6  C   UNL     1     -33.249 -12.507  11.938  0.00  0.00    +0.032 C 
ATOM      7  C   UNL     1     -34.453 -11.600  12.124  0.00  0.00    -0.031 C 
ATOM      8  C   UNL     1     -34.673 -10.898  13.263  0.00  0.00    -0.031 C 
ATOM      9  C   UNL     1     -33.812 -11.057  14.506  0.00  0.00    +0.032 C 
ATOM     10  C   UNL     1     -32.456 -11.661  14.125  0.00  0.00    +0.011 C 
ATOM     11  C   UNL     1     -31.575 -12.181  15.238  0.00  0.00    +0.089 C 
ENDBRANCH   2   3
BRANCH   2  12
ATOM     12  C   UNL     1     -29.953 -13.794  16.885  0.00  0.00    -0.030 A 
ATOM     13  C   UNL     1     -30.886 -13.944  17.925  0.00  0.00    +0.006 A 
ATOM     14  C   UNL     1     -30.581 -13.508  19.218  0.00  0.00    +0.019 A 
ATOM     15  C   UNL     1     -29.337 -12.923  19.487  0.00  0.00    +0.052 A 
ATOM     16  C   UNL     1     -28.400 -12.776  18.458  0.00  0.00    +0.019 A 
ATOM     17  C   UNL     1     -28.703 -13.211  17.166  0.00  0.00    +0.006 A 
BRANCH  15  18
ATOM     18  C   UNL     1     -29.024 -12.473  20.819  0.00  0.00    +0.099 C 
ATOM     19  N   UNL     1     -28.772 -12.112  21.889  0.00  0.00    -0.191 NA
ENDBRANCH  15  18
ENDBRANCH   2  12
TORSDOF 3
ENDMDL
MODEL 5
REMARK VINA RESULT:    -4.186      1.648      7.477
REMARK INTER + INTRA:          -5.561
REMARK INTER:                  -5.005
REMARK INTRA:                  -0.557
REMARK UNBOUND:                -0.641
REMARK  Name = 
REMARK  4 active torsions:
REMARK  status: ('A' for Active; 'I' for Inactive)
REMARK    1  A    between atoms: C_1  and  C_2
REMARK    2  A    between atoms: C_2  and  C_3
REMARK    3  A    between atoms: C_2  and  N_11
REMARK    4  A    between atoms: C_6  and  C_7
REMARK                            x       y       z     vdW  Elec       q    Type
REMARK                         _______ _______ _______ _____ _____    ______ ____
ROOT
ATOM      1  C   UNL     1     -29.236 -10.207  17.822  0.00  0.00    +0.029 C 
ATOM      2  C   UNL     1     -30.171 -11.419  17.981  0.00  0.00    +0.084 C 
ENDROOT
BRANCH   2   3
ATOM      3  N   UNL     1     -29.399 -12.643  18.321  0.00  0.00    -0.295 NA
ATOM      4  C   UNL     1     -27.930 -12.428  18.317  0.00  0.00    +0.089 C 
ATOM      5  C   UNL     1     -27.431 -12.776  19.711  0.00  0.00    +0.011 C 
ATOM      6  C   UNL     1     -26.029 -13.381  19.840  0.00  0.00    +0.032 C 
ATOM      7  C   UNL     1     -25.828 -13.929  21.244  0.00  0.00    -0.031 C 
ATOM      8  C   UNL     1     -26.863 -14.243  22.062  0.00  0.00    -0.031 C 
ATOM      9  C   UNL     1     -28.312 -13.951  21.707  0.00  0.00    +0.032 C 
ATOM     10  C   UNL     1     -28.449 -13.773  20.191  0.00  0.00    +0.011 C 
ATOM     11  C   UNL     1     -29.734 -13.179  19.661  0.00  0.00    +0.089 C 
ENDBRANCH   2   3
BRANCH   2  12
ATOM     12  C   UNL     1     -30.940 -11.596  16.680  0.00  0.00    -0.030 A 
ATOM     13  C   UNL     1     -30.956 -12.842  16.031  0.00  0.00    +0.006 A 
ATOM     14  C   UNL     1     -31.666 -13.011  14.839  0.00  0.00    +0.019 A 
ATOM     15  C   UNL     1     -32.374 -11.937  14.285  0.00  0.00    +0.052 A 
ATOM     16  C   UNL     1     -32.369 -10.695  14.928  0.00  0.00    +0.019 A 
ATOM     17  C   UNL     1     -31.660 -10.525  16.120  0.00  0.00    +0.006 A 
BRANCH  15  18
ATOM     18  C   UNL     1     -33.106 -12.112  13.057  0.00  0.00    +0.099 C 
ATOM     19  N   UNL     1     -33.693 -12.252  12.070  0.00  0.00    -0.191 NA
ENDBRANCH  15  18
ENDBRANCH   2  12
TORSDOF 3
ENDMDL
MODEL 6
REMARK VINA RESULT:    -3.928      3.053      4.327
REMARK INTER + INTRA:          -5.259
REMARK INTER:                  -4.773
REMARK INTRA:                  -0.486
REMARK UNBOUND:                -0.641
REMARK  Name = 
REMARK  4 active torsions:
REMARK  status: ('A' for Active; 'I' for Inactive)
REMARK    1  A    between atoms: C_1  and  C_2
REMARK    2  A    between atoms: C_2  and  C_3
REMARK    3  A    between atoms: C_2  and  N_11
REMARK    4  A    between atoms: C_6  and  C_7
REMARK                            x       y       z     vdW  Elec       q    Type
REMARK                         _______ _______ _______ _____ _____    ______ ____
ROOT
ATOM      1  C   UNL     1     -30.604  -9.806  16.274  0.00  0.00    +0.029 C 
ATOM      2  C   UNL     1     -31.157 -10.878  17.229  0.00  0.00    +0.084 C 
ENDROOT
BRANCH   2   3
ATOM      3  N   UNL     1     -31.964 -11.882  16.487  0.00  0.00    -0.295 NA
ATOM      4  C   UNL     1     -33.037 -11.275  15.659  0.00  0.00    +0.089 C 
ATOM      5  C   UNL     1     -32.778 -11.701  14.222  0.00  0.00    +0.011 C 
ATOM      6  C   UNL     1     -33.989 -11.911  13.308  0.00  0.00    +0.032 C 
ATOM      7  C   UNL     1     -33.558 -12.610  12.029  0.00  0.00    -0.031 C 
ATOM      8  C   UNL     1     -32.412 -13.329  11.938  0.00  0.00    -0.031 C 
ATOM      9  C   UNL     1     -31.388 -13.390  13.059  0.00  0.00    +0.032 C 
ATOM     10  C   UNL     1     -32.048 -13.005  14.387  0.00  0.00    +0.011 C 
ATOM     11  C   UNL     1     -31.148 -12.707  15.565  0.00  0.00    +0.089 C 
ENDBRANCH   2   3
BRANCH   2  12
ATOM     12  C   UNL     1     -31.990 -10.179  18.293  0.00  0.00    -0.030 A 
ATOM     13  C   UNL     1     -32.073  -8.777  18.319  0.00  0.00    +0.006 A 
ATOM     14  C   UNL     1     -32.842  -8.131  19.291  0.00  0.00    +0.019 A 
ATOM     15  C   UNL     1     -33.543  -8.880  20.245  0.00  0.00    +0.052 A 
ATOM     16  C   UNL     1     -33.471 -10.277  20.222  0.00  0.00    +0.019 A 
ATOM     17  C   UNL     1     -32.703 -10.924  19.251  0.00  0.00    +0.006 A 
BRANCH  15  18
ATOM     18  C   UNL     1     -34.335  -8.214  21.246  0.00  0.00    +0.099 C 
ATOM     19  N   UNL     1     -34.972  -7.679  22.050  0.00  0.00    -0.191 NA
ENDBRANCH  15  18
ENDBRANCH   2  12
TORSDOF 3
ENDMDL
MODEL 7
REMARK VINA RESULT:    -3.723      2.328      3.737
REMARK INTER + INTRA:          -5.017
REMARK INTER:                  -4.641
REMARK INTRA:                  -0.376
REMARK UNBOUND:                -0.641
REMARK  Name = 
REMARK  4 active torsions:
REMARK  status: ('A' for Active; 'I' for Inactive)
REMARK    1  A    between atoms: C_1  and  C_2
REMARK    2  A    between atoms: C_2  and  C_3
REMARK    3  A    between atoms: C_2  and  N_11
REMARK    4  A    between atoms: C_6  and  C_7
REMARK                            x       y       z     vdW  Elec       q    Type
REMARK                         _______ _______ _______ _____ _____    ______ ____
ROOT
ATOM      1  C   UNL     1     -29.126 -13.121  17.775  0.00  0.00    +0.029 C 
ATOM      2  C   UNL     1     -30.552 -12.647  17.441  0.00  0.00    +0.084 C 
ENDROOT
BRANCH   2   3
ATOM      3  N   UNL     1     -30.626 -12.133  16.048  0.00  0.00    -0.295 NA
ATOM      4  C   UNL     1     -30.437 -13.191  15.023  0.00  0.00    +0.089 C 
ATOM      5  C   UNL     1     -31.691 -13.201  14.164  0.00  0.00    +0.011 C 
ATOM      6  C   UNL     1     -31.543 -13.563  12.683  0.00  0.00    +0.032 C 
ATOM      7  C   UNL     1     -32.826 -13.233  11.938  0.00  0.00    -0.031 C 
ATOM      8  C   UNL     1     -33.740 -12.350  12.409  0.00  0.00    -0.031 C 
ATOM      9  C   UNL     1     -33.635 -11.712  13.785  0.00  0.00    +0.032 C 
ATOM     10  C   UNL     1     -32.188 -11.787  14.283  0.00  0.00    +0.011 C 
ATOM     11  C   UNL     1     -31.925 -11.490  15.742  0.00  0.00    +0.089 C 
ENDBRANCH   2   3
BRANCH   2  12
ATOM     12  C   UNL     1     -30.940 -11.572  18.446  0.00  0.00    -0.030 A 
ATOM     13  C   UNL     1     -30.194 -10.385  18.536  0.00  0.00    +0.006 A 
ATOM     14  C   UNL     1     -30.551  -9.392  19.453  0.00  0.00    +0.019 A 
ATOM     15  C   UNL     1     -31.661  -9.573  20.288  0.00  0.00    +0.052 A 
ATOM     16  C   UNL     1     -32.413 -10.750  20.200  0.00  0.00    +0.019 A 
ATOM     17  C   UNL     1     -32.058 -11.743  19.284  0.00  0.00    +0.006 A 
BRANCH  15  18
ATOM     18  C   UNL     1     -32.028  -8.550  21.233  0.00  0.00    +0.099 C 
ATOM     19  N   UNL     1     -32.323  -7.729  21.992  0.00  0.00    -0.191 NA
ENDBRANCH  15  18
ENDBRANCH   2  12
TORSDOF 3
ENDMDL
