MODEL 1
REMARK VINA RESULT:    -4.696      0.000      0.000
REMARK INTER + INTRA:          -7.485
REMARK INTER:                  -5.931
REMARK INTRA:                  -1.554
REMARK UNBOUND:                -1.554
REMARK  Name = 
REMARK  5 active torsions:
REMARK  status: ('A' for Active; 'I' for Inactive)
REMARK    1  A    between atoms: O_1  and  C_2
REMARK    2  A    between atoms: C_2  and  C_3
REMARK    3  A    between atoms: C_8  and  N_9
REMARK    4  A    between atoms: N_9  and  C_10
REMARK    5  A    between atoms: C_10  and  C_11
REMARK                            x       y       z     vdW  Elec       q    Type
REMARK                         _______ _______ _______ _____ _____    ______ ____
ROOT
ATOM      1  C   UNL     1     -31.366 -12.094  16.413  0.00  0.00    +0.139 C 
ENDROOT
BRANCH   1   2
ATOM      2  C   UNL     1     -31.538 -12.597  15.002  0.00  0.00    -0.003 A 
ATOM      3  C   UNL     1     -30.581 -13.470  14.455  0.00  0.00    +0.027 A 
ATOM      4  C   UNL     1     -30.702 -13.926  13.139  0.00  0.00    +0.042 A 
ATOM      5 CL   UNL     1     -29.503 -15.022  12.480  0.00  0.00    -0.084 Cl
ATOM      6  C   UNL     1     -31.774 -13.506  12.346  0.00  0.00    +0.030 A 
ATOM      7  C   UNL     1     -32.728 -12.622  12.866  0.00  0.00    +0.002 A 
ATOM      8  C   UNL     1     -33.802 -12.177  12.083  0.00  0.00    +0.011 A 
ATOM      9  C   UNL     1     -34.734 -11.289  12.623  0.00  0.00    +0.020 A 
ATOM     10  C   UNL     1     -34.583 -10.853  13.940  0.00  0.00    +0.111 A 
ATOM     11  N   UNL     1     -33.538 -11.292  14.689  0.00  0.00    -0.255 NA
ATOM     12  C   UNL     1     -32.610 -12.160  14.197  0.00  0.00    +0.076 A 
ENDBRANCH   1   2
BRANCH   1  13
ATOM     13  N   UNL     1     -31.275 -10.634  16.414  0.00  0.00    -0.338 N 
ATOM     14  H   UNL     1     -31.099 -10.165  15.496  0.00  0.00    +0.146 HD
BRANCH  13  20
ATOM     15  C   UNL     1     -32.101  -9.047  18.139  0.00  0.00    +0.002 A 
ATOM     16  C   UNL     1     -31.898  -8.416  19.380  0.00  0.00    +0.027 A 
ATOM     17  C   UNL     1     -30.688  -8.576  20.052  0.00  0.00    +0.111 A 
ATOM     18  N   UNL     1     -29.714  -9.360  19.525  0.00  0.00    -0.261 NA
ATOM     19  C   UNL     1     -29.882 -10.009  18.344  0.00  0.00    +0.134 A 
ATOM     20  C   UNL     1     -31.079  -9.880  17.623  0.00  0.00    +0.051 A 
BRANCH  15  21
ATOM     21  C   UNL     1     -33.417  -8.873  17.408  0.00  0.00    +0.193 C 
BRANCH  21  22
ATOM     22  O   UNL     1     -33.223  -8.663  16.034  0.00  0.00    -0.390 OA
ATOM     23  H   UNL     1     -33.146  -9.561  15.617  0.00  0.00    +0.210 HD
ENDBRANCH  21  22
ENDBRANCH  15  21
ENDBRANCH  13  20
ENDBRANCH   1  13
TORSDOF 5
ENDMDL
MODEL 2
REMARK VINA RESULT:    -4.656      3.406      4.806
REMARK INTER + INTRA:          -7.435
REMARK INTER:                  -6.237
REMARK INTRA:                  -1.198
REMARK UNBOUND:                -1.554
REMARK  Name = 
REMARK  5 active torsions:
REMARK  status: ('A' for Active; 'I' for Inactive)
REMARK    1  A    between atoms: O_1  and  C_2
REMARK    2  A    between atoms: C_2  and  C_3
REMARK    3  A    between atoms: C_8  and  N_9
REMARK    4  A    between atoms: N_9  and  C_10
REMARK    5  A    between atoms: C_10  and  C_11
REMARK                            x       y       z     vdW  Elec       q    Type
REMARK                         _______ _______ _______ _____ _____    ______ ____
ROOT
ATOM      1  C   UNL     1     -29.859 -10.462  17.446  0.00  0.00    +0.139 C 
ENDROOT
BRANCH   1   2
ATOM      2  C   UNL     1     -30.764 -10.967  16.352  0.00  0.00    -0.003 A 
ATOM      3  C   UNL     1     -31.841 -10.173  15.919  0.00  0.00    +0.027 A 
ATOM      4  C   UNL     1     -32.712 -10.633  14.928  0.00  0.00    +0.042 A 
ATOM      5 CL   UNL     1     -34.043  -9.623  14.396  0.00  0.00    -0.084 Cl
ATOM      6  C   UNL     1     -32.529 -11.898  14.362  0.00  0.00    +0.030 A 
ATOM      7  C   UNL     1     -31.473 -12.712  14.792  0.00  0.00    +0.002 A 
ATOM      8  C   UNL     1     -31.280 -13.990  14.249  0.00  0.00    +0.011 A 
ATOM      9  C   UNL     1     -30.226 -14.785  14.702  0.00  0.00    +0.020 A 
ATOM     10  C   UNL     1     -29.374 -14.296  15.693  0.00  0.00    +0.111 A 
ATOM     11  N   UNL     1     -29.571 -13.055  16.212  0.00  0.00    -0.255 NA
ATOM     12  C   UNL     1     -30.588 -12.251  15.794  0.00  0.00    +0.076 A 
ENDBRANCH   1   2
BRANCH   1  13
ATOM     13  N   UNL     1     -29.895 -11.377  18.586  0.00  0.00    -0.338 N 
ATOM     14  H   UNL     1     -30.772 -11.399  19.155  0.00  0.00    +0.146 HD
BRANCH  13  20
ATOM     15  C   UNL     1     -28.773 -12.977  20.122  0.00  0.00    +0.002 A 
ATOM     16  C   UNL     1     -27.582 -13.594  20.545  0.00  0.00    +0.027 A 
ATOM     17  C   UNL     1     -26.358 -13.172  20.029  0.00  0.00    +0.111 A 
ATOM     18  N   UNL     1     -26.314 -12.184  19.101  0.00  0.00    -0.261 NA
ATOM     19  C   UNL     1     -27.443 -11.583  18.645  0.00  0.00    +0.134 A 
ATOM     20  C   UNL     1     -28.703 -11.966  19.134  0.00  0.00    +0.051 A 
BRANCH  15  21
ATOM     21  C   UNL     1     -30.104 -13.436  20.683  0.00  0.00    +0.193 C 
BRANCH  21  22
ATOM     22  O   UNL     1     -30.923 -13.989  19.687  0.00  0.00    -0.390 OA
ATOM     23  H   UNL     1     -31.731 -14.339  20.146  0.00  0.00    +0.210 HD
ENDBRANCH  21  22
ENDBRANCH  15  21
ENDBRANCH  13  20
ENDBRANCH   1  13
TORSDOF 5
ENDMDL
MODEL 3
REMARK VINA RESULT:    -4.628      3.276      3.925
REMARK INTER + INTRA:          -7.400
REMARK INTER:                  -6.501
REMARK INTRA:                  -0.899
REMARK UNBOUND:                -1.554
REMARK  Name = 
REMARK  5 active torsions:
REMARK  status: ('A' for Active; 'I' for Inactive)
REMARK    1  A    between atoms: O_1  and  C_2
REMARK    2  A    between atoms: C_2  and  C_3
REMARK    3  A    between atoms: C_8  and  N_9
REMARK    4  A    between atoms: N_9  and  C_10
REMARK    5  A    between atoms: C_10  and  C_11
REMARK                            x       y       z     vdW  Elec       q    Type
REMARK                         _______ _______ _______ _____ _____    ______ ____
ROOT
ATOM      1  C   UNL     1     -30.986 -14.547  17.826  0.00  0.00    +0.139 C 
ENDROOT
BRANCH   1   2
ATOM      2  C   UNL     1     -30.804 -14.204  16.369  0.00  0.00    -0.003 A 
ATOM      3  C   UNL     1     -29.703 -14.724  15.666  0.00  0.00    +0.027 A 
ATOM      4  C   UNL     1     -29.496 -14.395  14.323  0.00  0.00    +0.042 A 
ATOM      5 CL   UNL     1     -28.122 -15.062  13.461  0.00  0.00    -0.084 Cl
ATOM      6  C   UNL     1     -30.379 -13.534  13.666  0.00  0.00    +0.030 A 
ATOM      7  C   UNL     1     -31.472 -12.990  14.354  0.00  0.00    +0.002 A 
ATOM      8  C   UNL     1     -32.361 -12.112  13.718  0.00  0.00    +0.011 A 
ATOM      9  C   UNL     1     -33.436 -11.578  14.429  0.00  0.00    +0.020 A 
ATOM     10  C   UNL     1     -33.614 -11.926  15.769  0.00  0.00    +0.111 A 
ATOM     11  N   UNL     1     -32.746 -12.779  16.374  0.00  0.00    -0.255 NA
ATOM     12  C   UNL     1     -31.686 -13.321  15.712  0.00  0.00    +0.076 A 
ENDBRANCH   1   2
BRANCH   1  13
ATOM     13  N   UNL     1     -29.824 -14.098  18.592  0.00  0.00    -0.338 N 
ATOM     14  H   UNL     1     -28.935 -14.634  18.471  0.00  0.00    +0.146 HD
BRANCH  13  20
ATOM     15  C   UNL     1     -28.893 -13.060  20.650  0.00  0.00    +0.002 A 
ATOM     16  C   UNL     1     -29.019 -12.096  21.666  0.00  0.00    +0.027 A 
ATOM     17  C   UNL     1     -30.186 -11.341  21.768  0.00  0.00    +0.111 A 
ATOM     18  N   UNL     1     -31.191 -11.516  20.874  0.00  0.00    -0.261 NA
ATOM     19  C   UNL     1     -31.097 -12.416  19.861  0.00  0.00    +0.134 A 
ATOM     20  C   UNL     1     -29.945 -13.206  19.714  0.00  0.00    +0.051 A 
BRANCH  15  21
ATOM     21  C   UNL     1     -27.624 -13.881  20.538  0.00  0.00    +0.193 C 
BRANCH  21  22
ATOM     22  O   UNL     1     -27.197 -13.999  19.207  0.00  0.00    -0.390 OA
ATOM     23  H   UNL     1     -26.315 -14.453  19.230  0.00  0.00    +0.210 HD
ENDBRANCH  21  22
ENDBRANCH  15  21
ENDBRANCH  13  20
ENDBRANCH   1  13
TORSDOF 5
ENDMDL
MODEL 4
REMARK VINA RESULT:    -4.544      2.725      3.153
REMARK INTER + INTRA:          -7.294
REMARK INTER:                  -6.381
REMARK INTRA:                  -0.913
REMARK UNBOUND:                -1.554
REMARK  Name = 
REMARK  5 active torsions:
REMARK  status: ('A' for Active; 'I' for Inactive)
REMARK    1  A    between atoms: O_1  and  C_2
REMARK    2  A    between atoms: C_2  and  C_3
REMARK    3  A    between atoms: C_8  and  N_9
REMARK    4  A    between atoms: N_9  and  C_10
REMARK    5  A    between atoms: C_10  and  C_11
REMARK                            x       y       z     vdW  Elec       q    Type
REMARK                         _______ _______ _______ _____ _____    ______ ____
ROOT
ATOM      1  C   UNL     1     -32.330 -12.388  16.859  0.00  0.00    +0.139 C 
ENDROOT
BRANCH   1   2
ATOM      2  C   UNL     1     -31.760 -12.932  15.574  0.00  0.00    -0.003 A 
ATOM      3  C   UNL     1     -30.502 -13.560  15.583  0.00  0.00    +0.027 A 
ATOM      4  C   UNL     1     -29.939 -14.044  14.398  0.00  0.00    +0.042 A 
ATOM      5 CL   UNL     1     -28.373 -14.833  14.433  0.00  0.00    -0.084 Cl
ATOM      6  C   UNL     1     -30.618 -13.898  13.186  0.00  0.00    +0.030 A 
ATOM      7  C   UNL     1     -31.864 -13.258  13.152  0.00  0.00    +0.002 A 
ATOM      8  C   UNL     1     -32.556 -13.087  11.945  0.00  0.00    +0.011 A 
ATOM      9  C   UNL     1     -33.792 -12.439  11.938  0.00  0.00    +0.020 A 
ATOM     10  C   UNL     1     -34.325 -11.967  13.138  0.00  0.00    +0.111 A 
ATOM     11  N   UNL     1     -33.646 -12.140  14.303  0.00  0.00    -0.255 NA
ATOM     12  C   UNL     1     -32.439 -12.768  14.348  0.00  0.00    +0.076 A 
ENDBRANCH   1   2
BRANCH   1  13
ATOM     13  N   UNL     1     -31.786 -13.129  17.997  0.00  0.00    -0.338 N 
ATOM     14  H   UNL     1     -31.769 -14.171  17.926  0.00  0.00    +0.146 HD
BRANCH  13  20
ATOM     15  C   UNL     1     -30.339 -12.508  19.921  0.00  0.00    +0.002 A 
ATOM     16  C   UNL     1     -30.193 -11.809  21.132  0.00  0.00    +0.027 A 
ATOM     17  C   UNL     1     -31.298 -11.190  21.715  0.00  0.00    +0.111 A 
ATOM     18  N   UNL     1     -32.507 -11.238  21.103  0.00  0.00    -0.261 NA
ATOM     19  C   UNL     1     -32.683 -11.878  19.918  0.00  0.00    +0.134 A 
ATOM     20  C   UNL     1     -31.606 -12.523  19.289  0.00  0.00    +0.051 A 
BRANCH  15  21
ATOM     21  C   UNL     1     -29.138 -13.183  19.287  0.00  0.00    +0.193 C 
BRANCH  21  22
ATOM     22  O   UNL     1     -29.486 -14.402  18.686  0.00  0.00    -0.390 OA
ATOM     23  H   UNL     1     -28.638 -14.828  18.394  0.00  0.00    +0.210 HD
ENDBRANCH  21  22
ENDBRANCH  15  21
ENDBRANCH  13  20
ENDBRANCH   1  13
TORSDOF 5
ENDMDL
MODEL 5
REMARK VINA RESULT:    -4.538      2.932      4.141
REMARK INTER + INTRA:          -7.286
REMARK INTER:                  -5.762
REMARK INTRA:                  -1.524
REMARK UNBOUND:                -1.554
REMARK  Name = 
REMARK  5 active torsions:
REMARK  status: ('A' for Active; 'I' for Inactive)
REMARK    1  A    between atoms: O_1  and  C_2
REMARK    2  A    between atoms: C_2  and  C_3
REMARK    3  A    between atoms: C_8  and  N_9
REMARK    4  A    between atoms: N_9  and  C_10
REMARK    5  A    between atoms: C_10  and  C_11
REMARK                            x       y       z     vdW  Elec       q    Type
REMARK                         _______ _______ _______ _____ _____    ______ ____
ROOT
ATOM      1  C   UNL     1     -31.774 -11.409  16.526  0.00  0.00    +0.139 C 
ENDROOT
BRANCH   1   2
ATOM      2  C   UNL     1     -31.857 -12.050  15.164  0.00  0.00    -0.003 A 
ATOM      3  C   UNL     1     -32.886 -11.677  14.282  0.00  0.00    +0.027 A 
ATOM      4  C   UNL     1     -33.002 -12.279  13.026  0.00  0.00    +0.042 A 
ATOM      5 CL   UNL     1     -34.288 -11.792  11.938  0.00  0.00    -0.084 Cl
ATOM      6  C   UNL     1     -32.099 -13.273  12.637  0.00  0.00    +0.030 A 
ATOM      7  C   UNL     1     -31.077 -13.672  13.508  0.00  0.00    +0.002 A 
ATOM      8  C   UNL     1     -30.170 -14.677  13.143  0.00  0.00    +0.011 A 
ATOM      9  C   UNL     1     -29.167 -15.062  14.033  0.00  0.00    +0.020 A 
ATOM     10  C   UNL     1     -29.079 -14.441  15.280  0.00  0.00    +0.111 A 
ATOM     11  N   UNL     1     -29.964 -13.468  15.622  0.00  0.00    -0.255 NA
ATOM     12  C   UNL     1     -30.955 -13.064  14.779  0.00  0.00    +0.076 A 
ENDBRANCH   1   2
BRANCH   1  13
ATOM     13  N   UNL     1     -31.815 -12.438  17.564  0.00  0.00    -0.338 N 
ATOM     14  H   UNL     1     -32.147 -13.388  17.283  0.00  0.00    +0.146 HD
BRANCH  13  20
ATOM     15  C   UNL     1     -30.615 -12.443  19.740  0.00  0.00    +0.002 A 
ATOM     16  C   UNL     1     -30.559 -12.010  21.077  0.00  0.00    +0.027 A 
ATOM     17  C   UNL     1     -31.634 -11.316  21.629  0.00  0.00    +0.111 A 
ATOM     18  N   UNL     1     -32.724 -11.035  20.873  0.00  0.00    -0.261 NA
ATOM     19  C   UNL     1     -32.805 -11.411  19.570  0.00  0.00    +0.134 A 
ATOM     20  C   UNL     1     -31.752 -12.116  18.965  0.00  0.00    +0.051 A 
BRANCH  15  21
ATOM     21  C   UNL     1     -29.445 -13.197  19.139  0.00  0.00    +0.193 C 
BRANCH  21  22
ATOM     22  O   UNL     1     -29.869 -14.335  18.437  0.00  0.00    -0.390 OA
ATOM     23  H   UNL     1     -30.017 -14.051  17.498  0.00  0.00    +0.210 HD
ENDBRANCH  21  22
ENDBRANCH  15  21
ENDBRANCH  13  20
ENDBRANCH   1  13
TORSDOF 5
ENDMDL
MODEL 6
REMARK VINA RESULT:    -4.518      3.079      4.296
REMARK INTER + INTRA:          -7.261
REMARK INTER:                  -5.819
REMARK INTRA:                  -1.442
REMARK UNBOUND:                -1.554
REMARK  Name = 
REMARK  5 active torsions:
REMARK  status: ('A' for Active; 'I' for Inactive)
REMARK    1  A    between atoms: O_1  and  C_2
REMARK    2  A    between atoms: C_2  and  C_3
REMARK    3  A    between atoms: C_8  and  N_9
REMARK    4  A    between atoms: N_9  and  C_10
REMARK    5  A    between atoms: C_10  and  C_11
REMARK                            x       y       z     vdW  Elec       q    Type
REMARK                         _______ _______ _______ _____ _____    ______ ____
ROOT
ATOM      1  C   UNL     1     -32.001 -13.006  16.642  0.00  0.00    +0.139 C 
ENDROOT
BRANCH   1   2
ATOM      2  C   UNL     1     -31.866 -13.077  15.142  0.00  0.00    -0.003 A 
ATOM      3  C   UNL     1     -32.869 -12.521  14.328  0.00  0.00    +0.027 A 
ATOM      4  C   UNL     1     -32.782 -12.601  12.935  0.00  0.00    +0.042 A 
ATOM      5 CL   UNL     1     -34.039 -11.894  11.938  0.00  0.00    -0.084 Cl
ATOM      6  C   UNL     1     -31.698 -13.248  12.335  0.00  0.00    +0.030 A 
ATOM      7  C   UNL     1     -30.697 -13.823  13.128  0.00  0.00    +0.002 A 
ATOM      8  C   UNL     1     -29.609 -14.489  12.547  0.00  0.00    +0.011 A 
ATOM      9  C   UNL     1     -28.630 -15.062  13.360  0.00  0.00    +0.020 A 
ATOM     10  C   UNL     1     -28.748 -14.965  14.747  0.00  0.00    +0.111 A 
ATOM     11  N   UNL     1     -29.807 -14.316  15.299  0.00  0.00    -0.255 NA
ATOM     12  C   UNL     1     -30.780 -13.744  14.538  0.00  0.00    +0.076 A 
ENDBRANCH   1   2
BRANCH   1  13
ATOM     13  N   UNL     1     -30.757 -12.514  17.231  0.00  0.00    -0.338 N 
ATOM     14  H   UNL     1     -29.899 -12.545  16.634  0.00  0.00    +0.146 HD
BRANCH  13  20
ATOM     15  C   UNL     1     -29.322 -12.268  19.246  0.00  0.00    +0.002 A 
ATOM     16  C   UNL     1     -29.225 -11.970  20.617  0.00  0.00    +0.027 A 
ATOM     17  C   UNL     1     -30.382 -11.784  21.372  0.00  0.00    +0.111 A 
ATOM     18  N   UNL     1     -31.601 -11.864  20.782  0.00  0.00    -0.261 NA
ATOM     19  C   UNL     1     -31.736 -12.121  19.455  0.00  0.00    +0.134 A 
ATOM     20  C   UNL     1     -30.604 -12.321  18.648  0.00  0.00    +0.051 A 
BRANCH  15  21
ATOM     21  C   UNL     1     -28.064 -12.471  18.425  0.00  0.00    +0.193 C 
BRANCH  21  22
ATOM     22  O   UNL     1     -28.127 -13.647  17.662  0.00  0.00    -0.390 OA
ATOM     23  H   UNL     1     -28.965 -14.111  17.923  0.00  0.00    +0.210 HD
ENDBRANCH  21  22
ENDBRANCH  15  21
ENDBRANCH  13  20
ENDBRANCH   1  13
TORSDOF 5
ENDMDL
MODEL 7
REMARK VINA RESULT:    -4.385      2.126      2.739
REMARK INTER + INTRA:          -7.093
REMARK INTER:                  -5.110
REMARK INTRA:                  -1.983
REMARK UNBOUND:                -1.554
REMARK  Name = 
REMARK  5 active torsions:
REMARK  status: ('A' for Active; 'I' for Inactive)
REMARK    1  A    between atoms: O_1  and  C_2
REMARK    2  A    between atoms: C_2  and  C_3
REMARK    3  A    between atoms: C_8  and  N_9
REMARK    4  A    between atoms: N_9  and  C_10
REMARK    5  A    between atoms: C_10  and  C_11
REMARK                            x       y       z     vdW  Elec       q    Type
REMARK                         _______ _______ _______ _____ _____    ______ ____
ROOT
ATOM      1  C   UNL     1     -31.365 -14.302  17.418  0.00  0.00    +0.139 C 
ENDROOT
BRANCH   1   2
ATOM      2  C   UNL     1     -31.352 -13.990  15.943  0.00  0.00    -0.003 A 
ATOM      3  C   UNL     1     -30.388 -14.591  15.115  0.00  0.00    +0.027 A 
ATOM      4  C   UNL     1     -30.337 -14.294  13.750  0.00  0.00    +0.042 A 
ATOM      5 CL   UNL     1     -29.131 -15.062  12.733  0.00  0.00    -0.084 Cl
ATOM      6  C   UNL     1     -31.239 -13.384  13.194  0.00  0.00    +0.030 A 
ATOM      7  C   UNL     1     -32.197 -12.761  14.005  0.00  0.00    +0.002 A 
ATOM      8  C   UNL     1     -33.103 -11.834  13.471  0.00  0.00    +0.011 A 
ATOM      9  C   UNL     1     -34.040 -11.220  14.303  0.00  0.00    +0.020 A 
ATOM     10  C   UNL     1     -34.064 -11.538  15.661  0.00  0.00    +0.111 A 
ATOM     11  N   UNL     1     -33.182 -12.440  16.168  0.00  0.00    -0.255 NA
ATOM     12  C   UNL     1     -32.254 -13.059  15.386  0.00  0.00    +0.076 A 
ENDBRANCH   1   2
BRANCH   1  13
ATOM     13  N   UNL     1     -31.027 -13.103  18.183  0.00  0.00    -0.338 N 
ATOM     14  H   UNL     1     -31.818 -12.491  18.488  0.00  0.00    +0.146 HD
BRANCH  13  20
ATOM     15  C   UNL     1     -29.412 -11.246  17.831  0.00  0.00    +0.002 A 
ATOM     16  C   UNL     1     -28.108 -10.747  17.998  0.00  0.00    +0.027 A 
ATOM     17  C   UNL     1     -27.105 -11.575  18.501  0.00  0.00    +0.111 A 
ATOM     18  N   UNL     1     -27.390 -12.853  18.853  0.00  0.00    -0.261 NA
ATOM     19  C   UNL     1     -28.643 -13.364  18.735  0.00  0.00    +0.134 A 
ATOM     20  C   UNL     1     -29.690 -12.576  18.230  0.00  0.00    +0.051 A 
BRANCH  15  21
ATOM     21  C   UNL     1     -30.503 -10.347  17.285  0.00  0.00    +0.193 C 
BRANCH  21  22
ATOM     22  O   UNL     1     -31.706 -10.504  17.989  0.00  0.00    -0.390 OA
ATOM     23  H   UNL     1     -32.195  -9.643  17.912  0.00  0.00    +0.210 HD
ENDBRANCH  21  22
ENDBRANCH  15  21
ENDBRANCH  13  20
ENDBRANCH   1  13
TORSDOF 5
ENDMDL
MODEL 8
REMARK VINA RESULT:    -4.240      2.348      3.574
REMARK INTER + INTRA:          -6.909
REMARK INTER:                  -5.194
REMARK INTRA:                  -1.715
REMARK UNBOUND:                -1.554
REMARK  Name = 
REMARK  5 active torsions:
REMARK  status: ('A' for Active; 'I' for Inactive)
REMARK    1  A    between atoms: O_1  and  C_2
REMARK    2  A    between atoms: C_2  and  C_3
REMARK    3  A    between atoms: C_8  and  N_9
REMARK    4  A    between atoms: N_9  and  C_10
REMARK    5  A    between atoms: C_10  and  C_11
REMARK                            x       y       z     vdW  Elec       q    Type
REMARK                         _______ _______ _______ _____ _____    ______ ____
ROOT
ATOM      1  C   UNL     1     -31.787 -10.074  16.257  0.00  0.00    +0.139 C 
ENDROOT
BRANCH   1   2
ATOM      2  C   UNL     1     -31.842 -11.216  15.274  0.00  0.00    -0.003 A 
ATOM      3  C   UNL     1     -32.738 -11.158  14.192  0.00  0.00    +0.027 A 
ATOM      4  C   UNL     1     -32.829 -12.218  13.285  0.00  0.00    +0.042 A 
ATOM      5 CL   UNL     1     -33.948 -12.122  11.938  0.00  0.00    -0.084 Cl
ATOM      6  C   UNL     1     -32.035 -13.355  13.450  0.00  0.00    +0.030 A 
ATOM      7  C   UNL     1     -31.148 -13.440  14.531  0.00  0.00    +0.002 A 
ATOM      8  C   UNL     1     -30.352 -14.578  14.725  0.00  0.00    +0.011 A 
ATOM      9  C   UNL     1     -29.483 -14.641  15.815  0.00  0.00    +0.020 A 
ATOM     10  C   UNL     1     -29.417 -13.566  16.703  0.00  0.00    +0.111 A 
ATOM     11  N   UNL     1     -30.192 -12.468  16.504  0.00  0.00    -0.255 NA
ATOM     12  C   UNL     1     -31.051 -12.370  15.451  0.00  0.00    +0.076 A 
ENDBRANCH   1   2
BRANCH   1  13
ATOM     13  N   UNL     1     -32.314 -10.506  17.551  0.00  0.00    -0.338 N 
ATOM     14  H   UNL     1     -33.311 -10.818  17.582  0.00  0.00    +0.146 HD
BRANCH  13  20
ATOM     15  C   UNL     1     -31.699 -11.095  19.887  0.00  0.00    +0.002 A 
ATOM     16  C   UNL     1     -30.942 -10.802  21.035  0.00  0.00    +0.027 A 
ATOM     17  C   UNL     1     -30.198  -9.624  21.096  0.00  0.00    +0.111 A 
ATOM     18  N   UNL     1     -30.183  -8.773  20.041  0.00  0.00    -0.261 NA
ATOM     19  C   UNL     1     -30.878  -9.033  18.903  0.00  0.00    +0.134 A 
ATOM     20  C   UNL     1     -31.647 -10.203  18.789  0.00  0.00    +0.051 A 
BRANCH  15  21
ATOM     21  C   UNL     1     -32.508 -12.375  19.820  0.00  0.00    +0.193 C 
BRANCH  21  22
ATOM     22  O   UNL     1     -32.182 -13.136  18.687  0.00  0.00    -0.390 OA
ATOM     23  H   UNL     1     -32.743 -13.954  18.723  0.00  0.00    +0.210 HD
ENDBRANCH  21  22
ENDBRANCH  15  21
ENDBRANCH  13  20
ENDBRANCH   1  13
TORSDOF 5
ENDMDL
MODEL 9
REMARK VINA RESULT:    -4.214      3.031      5.017
REMARK INTER + INTRA:          -6.877
REMARK INTER:                  -5.175
REMARK INTRA:                  -1.702
REMARK UNBOUND:                -1.554
REMARK  Name = 
REMARK  5 active torsions:
REMARK  status: ('A' for Active; 'I' for Inactive)
REMARK    1  A    between atoms: O_1  and  C_2
REMARK    2  A    between atoms: C_2  and  C_3
REMARK    3  A    between atoms: C_8  and  N_9
REMARK    4  A    between atoms: N_9  and  C_10
REMARK    5  A    between atoms: C_10  and  C_11
REMARK                            x       y       z     vdW  Elec       q    Type
REMARK                         _______ _______ _______ _____ _____    ______ ____
ROOT
ATOM      1  C   UNL     1     -29.280 -10.106  17.493  0.00  0.00    +0.139 C 
ENDROOT
BRANCH   1   2
ATOM      2  C   UNL     1     -30.690 -10.082  16.961  0.00  0.00    -0.003 A 
ATOM      3  C   UNL     1     -31.001 -10.788  15.785  0.00  0.00    +0.027 A 
ATOM      4  C   UNL     1     -32.295 -10.756  15.256  0.00  0.00    +0.042 A 
ATOM      5 CL   UNL     1     -32.663 -11.651  13.793  0.00  0.00    -0.084 Cl
ATOM      6  C   UNL     1     -33.294 -10.010  15.886  0.00  0.00    +0.030 A 
ATOM      7  C   UNL     1     -33.001  -9.285  17.049  0.00  0.00    +0.002 A 
ATOM      8  C   UNL     1     -33.984  -8.518  17.689  0.00  0.00    +0.011 A 
ATOM      9  C   UNL     1     -33.663  -7.799  18.841  0.00  0.00    +0.020 A 
ATOM     10  C   UNL     1     -32.362  -7.851  19.343  0.00  0.00    +0.111 A 
ATOM     11  N   UNL     1     -31.418  -8.599  18.714  0.00  0.00    -0.255 NA
ATOM     12  C   UNL     1     -31.694  -9.316  17.589  0.00  0.00    +0.076 A 
ENDBRANCH   1   2
BRANCH   1  13
ATOM     13  N   UNL     1     -29.295 -10.345  18.935  0.00  0.00    -0.338 N 
ATOM     14  H   UNL     1     -29.534  -9.536  19.552  0.00  0.00    +0.146 HD
BRANCH  13  20
ATOM     15  C   UNL     1     -29.221 -12.103  20.691  0.00  0.00    +0.002 A 
ATOM     16  C   UNL     1     -28.649 -13.297  21.165  0.00  0.00    +0.027 A 
ATOM     17  C   UNL     1     -27.541 -13.843  20.518  0.00  0.00    +0.111 A 
ATOM     18  N   UNL     1     -27.029 -13.239  19.417  0.00  0.00    -0.261 NA
ATOM     19  C   UNL     1     -27.570 -12.101  18.911  0.00  0.00    +0.134 A 
ATOM     20  C   UNL     1     -28.684 -11.505  19.526  0.00  0.00    +0.051 A 
BRANCH  15  21
ATOM     21  C   UNL     1     -30.425 -11.509  21.394  0.00  0.00    +0.193 C 
BRANCH  21  22
ATOM     22  O   UNL     1     -31.391 -11.063  20.480  0.00  0.00    -0.390 OA
ATOM     23  H   UNL     1     -32.100 -11.757  20.455  0.00  0.00    +0.210 HD
ENDBRANCH  21  22
ENDBRANCH  15  21
ENDBRANCH  13  20
ENDBRANCH   1  13
TORSDOF 5
ENDMDL
