MODEL 1
REMARK VINA RESULT:    -3.656      0.000      0.000
REMARK INTER + INTRA:          -5.105
REMARK INTER:                  -4.511
REMARK INTRA:                  -0.594
REMARK UNBOUND:                -0.594
REMARK  Name = 
REMARK  6 active torsions:
REMARK  status: ('A' for Active; 'I' for Inactive)
REMARK    1  A    between atoms: C_1  and  C_2
REMARK    2  A    between atoms: C_2  and  C_3
REMARK    3  A    between atoms: C_3  and  C_4
REMARK    4  A    between atoms: C_3  and  N_6
REMARK    5  A    between atoms: C_4  and  C_5
REMARK    6  A    between atoms: C_10  and  N_14
REMARK                            x       y       z     vdW  Elec       q    Type
REMARK                         _______ _______ _______ _____ _____    ______ ____
ROOT
ATOM      1  N   UNL     1     -30.700 -11.788  17.842  0.00  0.00    -0.311 N 
ATOM      2  C   UNL     1     -29.502 -12.184  18.522  0.00  0.00    +0.217 A 
ATOM      3  N   UNL     1     -28.290 -11.724  18.116  0.00  0.00    -0.221 NA
ATOM      4  C   UNL     1     -27.150 -12.094  18.752  0.00  0.00    +0.150 A 
ATOM      5  C   UNL     1     -27.203 -12.954  19.857  0.00  0.00    +0.184 A 
ATOM      6  C   UNL     1     -28.468 -13.444  20.248  0.00  0.00    +0.152 A 
ATOM      7  N   UNL     1     -28.616 -14.404  21.299  0.00  0.00    -0.341 N 
ATOM      8  N   UNL     1     -29.578 -13.039  19.575  0.00  0.00    -0.198 NA
ATOM      9  H   UNL     1     -31.611 -12.151  18.204  0.00  0.00    +0.149 HD
ATOM     10  H   UNL     1     -29.572 -14.684  21.612  0.00  0.00    +0.144 HD
ATOM     11  H   UNL     1     -27.806 -14.930  21.690  0.00  0.00    +0.144 HD
ENDROOT
BRANCH   5  12
ATOM     12  N   UNL     1     -25.995 -13.283  20.562  0.00  0.00    +0.061 N 
ATOM     13  O   UNL     1     -26.046 -13.593  21.902  0.00  0.00    -0.126 OA
ATOM     14  O   UNL     1     -24.938 -13.500  19.935  0.00  0.00    -0.126 OA
ENDBRANCH   5  12
BRANCH   1  15
ATOM     15  C   UNL     1     -30.688 -10.872  16.694  0.00  0.00    +0.073 C 
BRANCH  15  17
ATOM     16  C   UNL     1     -30.789 -12.916  15.158  0.00  0.00    +0.006 C 
ATOM     17  C   UNL     1     -31.384 -11.546  15.481  0.00  0.00    +0.019 C 
ENDBRANCH  15  17
BRANCH  15  18
ATOM     18  C   UNL     1     -31.366  -9.540  17.093  0.00  0.00    +0.019 C 
ATOM     19  C   UNL     1     -32.774  -9.389  16.521  0.00  0.00    +0.006 C 
ENDBRANCH  15  18
ENDBRANCH   1  15
TORSDOF 4
ENDMDL
MODEL 2
REMARK VINA RESULT:    -3.603      2.549      3.419
REMARK INTER + INTRA:          -5.040
REMARK INTER:                  -4.392
REMARK INTRA:                  -0.648
REMARK UNBOUND:                -0.594
REMARK  Name = 
REMARK  6 active torsions:
REMARK  status: ('A' for Active; 'I' for Inactive)
REMARK    1  A    between atoms: C_1  and  C_2
REMARK    2  A    between atoms: C_2  and  C_3
REMARK    3  A    between atoms: C_3  and  C_4
REMARK    4  A    between atoms: C_3  and  N_6
REMARK    5  A    between atoms: C_4  and  C_5
REMARK    6  A    between atoms: C_10  and  N_14
REMARK                            x       y       z     vdW  Elec       q    Type
REMARK                         _______ _______ _______ _____ _____    ______ ____
ROOT
ATOM      1  N   UNL     1     -31.750 -12.909  14.875  0.00  0.00    -0.311 N 
ATOM      2  C   UNL     1     -30.970 -12.471  15.995  0.00  0.00    +0.217 A 
ATOM      3  N   UNL     1     -30.720 -11.151  16.192  0.00  0.00    -0.221 NA
ATOM      4  C   UNL     1     -29.983 -10.725  17.248  0.00  0.00    +0.150 A 
ATOM      5  C   UNL     1     -29.472 -11.647  18.172  0.00  0.00    +0.184 A 
ATOM      6  C   UNL     1     -29.719 -13.018  17.937  0.00  0.00    +0.152 A 
ATOM      7  N   UNL     1     -29.158 -14.041  18.765  0.00  0.00    -0.341 N 
ATOM      8  N   UNL     1     -30.466 -13.387  16.862  0.00  0.00    -0.198 NA
ATOM      9  H   UNL     1     -31.934 -13.934  14.778  0.00  0.00    +0.149 HD
ATOM     10  H   UNL     1     -29.424 -15.038  18.609  0.00  0.00    +0.144 HD
ATOM     11  H   UNL     1     -28.394 -13.846  19.448  0.00  0.00    +0.144 HD
ENDROOT
BRANCH   5  12
ATOM     12  N   UNL     1     -28.751 -11.178  19.322  0.00  0.00    +0.061 N 
ATOM     13  O   UNL     1     -29.375 -10.361  20.237  0.00  0.00    -0.126 OA
ATOM     14  O   UNL     1     -27.641 -11.670  19.614  0.00  0.00    -0.126 OA
ENDBRANCH   5  12
BRANCH   1  15
ATOM     15  C   UNL     1     -32.320 -11.973  13.898  0.00  0.00    +0.073 C 
BRANCH  15  17
ATOM     16  C   UNL     1     -33.520 -13.101  11.938  0.00  0.00    +0.006 C 
ATOM     17  C   UNL     1     -32.190 -12.566  12.468  0.00  0.00    +0.019 C 
ENDBRANCH  15  17
BRANCH  15  18
ATOM     18  C   UNL     1     -33.790 -11.670  14.274  0.00  0.00    +0.019 C 
ATOM     19  C   UNL     1     -34.038 -10.196  14.588  0.00  0.00    +0.006 C 
ENDBRANCH  15  18
ENDBRANCH   1  15
TORSDOF 4
ENDMDL
MODEL 3
REMARK VINA RESULT:    -3.574      2.628      4.131
REMARK INTER + INTRA:          -5.004
REMARK INTER:                  -4.501
REMARK INTRA:                  -0.503
REMARK UNBOUND:                -0.594
REMARK  Name = 
REMARK  6 active torsions:
REMARK  status: ('A' for Active; 'I' for Inactive)
REMARK    1  A    between atoms: C_1  and  C_2
REMARK    2  A    between atoms: C_2  and  C_3
REMARK    3  A    between atoms: C_3  and  C_4
REMARK    4  A    between atoms: C_3  and  N_6
REMARK    5  A    between atoms: C_4  and  C_5
REMARK    6  A    between atoms: C_10  and  N_14
REMARK                            x       y       z     vdW  Elec       q    Type
REMARK                         _______ _______ _______ _____ _____    ______ ____
ROOT
ATOM      1  N   UNL     1     -29.057 -13.992  15.300  0.00  0.00    -0.311 N 
ATOM      2  C   UNL     1     -29.264 -13.715  16.691  0.00  0.00    +0.217 A 
ATOM      3  N   UNL     1     -30.494 -13.856  17.251  0.00  0.00    -0.221 NA
ATOM      4  C   UNL     1     -30.700 -13.597  18.567  0.00  0.00    +0.150 A 
ATOM      5  C   UNL     1     -29.637 -13.188  19.383  0.00  0.00    +0.184 A 
ATOM      6  C   UNL     1     -28.371 -13.021  18.779  0.00  0.00    +0.152 A 
ATOM      7  N   UNL     1     -27.248 -12.513  19.504  0.00  0.00    -0.341 N 
ATOM      8  N   UNL     1     -28.222 -13.297  17.455  0.00  0.00    -0.198 NA
ATOM      9  H   UNL     1     -28.088 -13.890  14.920  0.00  0.00    +0.149 HD
ATOM     10  H   UNL     1     -26.310 -12.476  19.047  0.00  0.00    +0.144 HD
ATOM     11  H   UNL     1     -27.348 -12.062  20.439  0.00  0.00    +0.144 HD
ENDROOT
BRANCH   5  12
ATOM     12  N   UNL     1     -29.856 -12.983  20.788  0.00  0.00    +0.061 N 
ATOM     13  O   UNL     1     -28.857 -13.275  21.687  0.00  0.00    -0.126 OA
ATOM     14  O   UNL     1     -30.854 -12.345  21.184  0.00  0.00    -0.126 OA
ENDBRANCH   5  12
BRANCH   1  15
ATOM     15  C   UNL     1     -30.141 -14.442  14.417  0.00  0.00    +0.073 C 
BRANCH  15  17
ATOM     16  C   UNL     1     -31.753 -13.375  12.740  0.00  0.00    +0.006 C 
ATOM     17  C   UNL     1     -31.095 -13.255  14.114  0.00  0.00    +0.019 C 
ENDBRANCH  15  17
BRANCH  15  18
ATOM     18  C   UNL     1     -29.535 -15.050  13.131  0.00  0.00    +0.019 C 
ATOM     19  C   UNL     1     -28.036 -14.791  12.992  0.00  0.00    +0.006 C 
ENDBRANCH  15  18
ENDBRANCH   1  15
TORSDOF 4
ENDMDL
MODEL 4
REMARK VINA RESULT:    -3.564      2.834      3.839
REMARK INTER + INTRA:          -4.992
REMARK INTER:                  -4.340
REMARK INTRA:                  -0.652
REMARK UNBOUND:                -0.594
REMARK  Name = 
REMARK  6 active torsions:
REMARK  status: ('A' for Active; 'I' for Inactive)
REMARK    1  A    between atoms: C_1  and  C_2
REMARK    2  A    between atoms: C_2  and  C_3
REMARK    3  A    between atoms: C_3  and  C_4
REMARK    4  A    between atoms: C_3  and  N_6
REMARK    5  A    between atoms: C_4  and  C_5
REMARK    6  A    between atoms: C_10  and  N_14
REMARK                            x       y       z     vdW  Elec       q    Type
REMARK                         _______ _______ _______ _____ _____    ______ ____
ROOT
ATOM      1  N   UNL     1     -30.997 -14.112  15.379  0.00  0.00    -0.311 N 
ATOM      2  C   UNL     1     -30.664 -13.377  16.563  0.00  0.00    +0.217 A 
ATOM      3  N   UNL     1     -30.125 -12.133  16.479  0.00  0.00    -0.221 NA
ATOM      4  C   UNL     1     -29.806 -11.429  17.594  0.00  0.00    +0.150 A 
ATOM      5  C   UNL     1     -30.040 -11.972  18.865  0.00  0.00    +0.184 A 
ATOM      6  C   UNL     1     -30.574 -13.277  18.934  0.00  0.00    +0.152 A 
ATOM      7  N   UNL     1     -30.756 -13.956  20.180  0.00  0.00    -0.341 N 
ATOM      8  N   UNL     1     -30.877 -13.936  17.783  0.00  0.00    -0.198 NA
ATOM      9  H   UNL     1     -31.429 -15.057  15.494  0.00  0.00    +0.149 HD
ATOM     10  H   UNL     1     -31.225 -14.888  20.198  0.00  0.00    +0.144 HD
ATOM     11  H   UNL     1     -30.329 -13.613  21.067  0.00  0.00    +0.144 HD
ENDROOT
BRANCH   5  12
ATOM     12  N   UNL     1     -29.759 -11.189  20.036  0.00  0.00    +0.061 N 
ATOM     13  O   UNL     1     -29.352 -11.810  21.195  0.00  0.00    -0.126 OA
ATOM     14  O   UNL     1     -29.673  -9.946  19.958  0.00  0.00    -0.126 OA
ENDBRANCH   5  12
BRANCH   1  15
ATOM     15  C   UNL     1     -30.787 -13.569  14.030  0.00  0.00    +0.073 C 
BRANCH  15  17
ATOM     16  C   UNL     1     -28.636 -14.864  13.533  0.00  0.00    +0.006 C 
ATOM     17  C   UNL     1     -30.096 -14.636  13.139  0.00  0.00    +0.019 C 
ENDBRANCH  15  17
BRANCH  15  18
ATOM     18  C   UNL     1     -32.143 -13.108  13.446  0.00  0.00    +0.019 C 
ATOM     19  C   UNL     1     -32.300 -13.435  11.962  0.00  0.00    +0.006 C 
ENDBRANCH  15  18
ENDBRANCH   1  15
TORSDOF 4
ENDMDL
MODEL 5
REMARK VINA RESULT:    -3.466      2.667      3.684
REMARK INTER + INTRA:          -4.871
REMARK INTER:                  -4.223
REMARK INTRA:                  -0.647
REMARK UNBOUND:                -0.594
REMARK  Name = 
REMARK  6 active torsions:
REMARK  status: ('A' for Active; 'I' for Inactive)
REMARK    1  A    between atoms: C_1  and  C_2
REMARK    2  A    between atoms: C_2  and  C_3
REMARK    3  A    between atoms: C_3  and  C_4
REMARK    4  A    between atoms: C_3  and  N_6
REMARK    5  A    between atoms: C_4  and  C_5
REMARK    6  A    between atoms: C_10  and  N_14
REMARK                            x       y       z     vdW  Elec       q    Type
REMARK                         _______ _______ _______ _____ _____    ______ ____
ROOT
ATOM      1  N   UNL     1     -33.105 -12.595  14.992  0.00  0.00    -0.311 N 
ATOM      2  C   UNL     1     -31.952 -12.516  15.841  0.00  0.00    +0.217 A 
ATOM      3  N   UNL     1     -31.262 -11.353  15.966  0.00  0.00    -0.221 NA
ATOM      4  C   UNL     1     -30.170 -11.268  16.767  0.00  0.00    +0.150 A 
ATOM      5  C   UNL     1     -29.738 -12.384  17.496  0.00  0.00    +0.184 A 
ATOM      6  C   UNL     1     -30.451 -13.592  17.333  0.00  0.00    +0.152 A 
ATOM      7  N   UNL     1     -30.030 -14.809  17.955  0.00  0.00    -0.341 N 
ATOM      8  N   UNL     1     -31.539 -13.619  16.517  0.00  0.00    -0.198 NA
ATOM      9  H   UNL     1     -33.616 -13.506  14.944  0.00  0.00    +0.149 HD
ATOM     10  H   UNL     1     -30.624 -15.664  17.874  0.00  0.00    +0.144 HD
ATOM     11  H   UNL     1     -29.088 -14.915  18.388  0.00  0.00    +0.144 HD
ENDROOT
BRANCH   5  12
ATOM     12  N   UNL     1     -28.621 -12.261  18.391  0.00  0.00    +0.061 N 
ATOM     13  O   UNL     1     -27.685 -13.268  18.462  0.00  0.00    -0.126 OA
ATOM     14  O   UNL     1     -28.373 -11.169  18.944  0.00  0.00    -0.126 OA
ENDBRANCH   5  12
BRANCH   1  15
ATOM     15  C   UNL     1     -33.601 -11.442  14.229  0.00  0.00    +0.073 C 
BRANCH  15  17
ATOM     16  C   UNL     1     -33.426 -12.977  12.187  0.00  0.00    +0.006 C 
ATOM     17  C   UNL     1     -34.273 -11.934  12.917  0.00  0.00    +0.019 C 
ENDBRANCH  15  17
BRANCH  15  18
ATOM     18  C   UNL     1     -34.570 -10.622  15.111  0.00  0.00    +0.019 C 
ATOM     19  C   UNL     1     -34.173  -9.152  15.234  0.00  0.00    +0.006 C 
ENDBRANCH  15  18
ENDBRANCH   1  15
TORSDOF 4
ENDMDL
MODEL 6
REMARK VINA RESULT:    -3.450      1.397      2.807
REMARK INTER + INTRA:          -4.851
REMARK INTER:                  -4.188
REMARK INTRA:                  -0.663
REMARK UNBOUND:                -0.594
REMARK  Name = 
REMARK  6 active torsions:
REMARK  status: ('A' for Active; 'I' for Inactive)
REMARK    1  A    between atoms: C_1  and  C_2
REMARK    2  A    between atoms: C_2  and  C_3
REMARK    3  A    between atoms: C_3  and  C_4
REMARK    4  A    between atoms: C_3  and  N_6
REMARK    5  A    between atoms: C_4  and  C_5
REMARK    6  A    between atoms: C_10  and  N_14
REMARK                            x       y       z     vdW  Elec       q    Type
REMARK                         _______ _______ _______ _____ _____    ______ ____
ROOT
ATOM      1  N   UNL     1     -29.332 -10.210  17.956  0.00  0.00    -0.311 N 
ATOM      2  C   UNL     1     -28.743 -11.310  18.663  0.00  0.00    +0.217 A 
ATOM      3  N   UNL     1     -29.523 -12.247  19.262  0.00  0.00    -0.221 NA
ATOM      4  C   UNL     1     -28.976 -13.291  19.933  0.00  0.00    +0.150 A 
ATOM      5  C   UNL     1     -27.584 -13.431  20.011  0.00  0.00    +0.184 A 
ATOM      6  C   UNL     1     -26.788 -12.433  19.406  0.00  0.00    +0.152 A 
ATOM      7  N   UNL     1     -25.361 -12.433  19.516  0.00  0.00    -0.341 N 
ATOM      8  N   UNL     1     -27.391 -11.409  18.745  0.00  0.00    -0.198 NA
ATOM      9  H   UNL     1     -28.690  -9.526  17.493  0.00  0.00    +0.149 HD
ATOM     10  H   UNL     1     -24.802 -11.725  18.991  0.00  0.00    +0.144 HD
ATOM     11  H   UNL     1     -24.856 -13.040  20.197  0.00  0.00    +0.144 HD
ENDROOT
BRANCH   5  12
ATOM     12  N   UNL     1     -27.018 -14.577  20.668  0.00  0.00    +0.061 N 
ATOM     13  O   UNL     1     -25.751 -14.999  20.339  0.00  0.00    -0.126 OA
ATOM     14  O   UNL     1     -27.572 -15.062  21.676  0.00  0.00    -0.126 OA
ENDBRANCH   5  12
BRANCH   1  15
ATOM     15  C   UNL     1     -30.785 -10.041  17.835  0.00  0.00    +0.073 C 
BRANCH  15  17
ATOM     16  C   UNL     1     -32.759  -8.632  18.657  0.00  0.00    +0.006 C 
ATOM     17  C   UNL     1     -31.260  -8.904  18.781  0.00  0.00    +0.019 C 
ENDBRANCH  15  17
BRANCH  15  18
ATOM     18  C   UNL     1     -31.147  -9.761  16.357  0.00  0.00    +0.019 C 
ATOM     19  C   UNL     1     -31.369 -11.034  15.542  0.00  0.00    +0.006 C 
ENDBRANCH  15  18
ENDBRANCH   1  15
TORSDOF 4
ENDMDL
MODEL 7
REMARK VINA RESULT:    -3.355      4.487      5.512
REMARK INTER + INTRA:          -4.733
REMARK INTER:                  -4.126
REMARK INTRA:                  -0.607
REMARK UNBOUND:                -0.594
REMARK  Name = 
REMARK  6 active torsions:
REMARK  status: ('A' for Active; 'I' for Inactive)
REMARK    1  A    between atoms: C_1  and  C_2
REMARK    2  A    between atoms: C_2  and  C_3
REMARK    3  A    between atoms: C_3  and  C_4
REMARK    4  A    between atoms: C_3  and  N_6
REMARK    5  A    between atoms: C_4  and  C_5
REMARK    6  A    between atoms: C_10  and  N_14
REMARK                            x       y       z     vdW  Elec       q    Type
REMARK                         _______ _______ _______ _____ _____    ______ ____
ROOT
ATOM      1  N   UNL     1     -32.565 -12.274  14.515  0.00  0.00    -0.311 N 
ATOM      2  C   UNL     1     -32.179 -11.392  15.577  0.00  0.00    +0.217 A 
ATOM      3  N   UNL     1     -30.919 -10.889  15.637  0.00  0.00    -0.221 NA
ATOM      4  C   UNL     1     -30.544 -10.053  16.637  0.00  0.00    +0.150 A 
ATOM      5  C   UNL     1     -31.460  -9.679  17.629  0.00  0.00    +0.184 A 
ATOM      6  C   UNL     1     -32.758 -10.233  17.567  0.00  0.00    +0.152 A 
ATOM      7  N   UNL     1     -33.733  -9.992  18.585  0.00  0.00    -0.341 N 
ATOM      8  N   UNL     1     -33.080 -11.065  16.540  0.00  0.00    -0.198 NA
ATOM      9  H   UNL     1     -33.552 -12.618  14.500  0.00  0.00    +0.149 HD
ATOM     10  H   UNL     1     -34.705 -10.354  18.467  0.00  0.00    +0.144 HD
ATOM     11  H   UNL     1     -33.484  -9.570  19.506  0.00  0.00    +0.144 HD
ENDROOT
BRANCH   5  12
ATOM     12  N   UNL     1     -31.069  -8.741  18.644  0.00  0.00    +0.061 N 
ATOM     13  O   UNL     1     -31.958  -7.783  19.072  0.00  0.00    -0.126 OA
ATOM     14  O   UNL     1     -30.016  -8.916  19.292  0.00  0.00    -0.126 OA
ENDBRANCH   5  12
BRANCH   1  15
ATOM     15  C   UNL     1     -31.640 -12.672  13.446  0.00  0.00    +0.073 C 
BRANCH  15  17
ATOM     16  C   UNL     1     -29.811 -14.358  12.845  0.00  0.00    +0.006 C 
ATOM     17  C   UNL     1     -30.848 -13.934  13.885  0.00  0.00    +0.019 C 
ENDBRANCH  15  17
BRANCH  15  18
ATOM     18  C   UNL     1     -32.435 -12.903  12.140  0.00  0.00    +0.019 C 
ATOM     19  C   UNL     1     -33.944 -12.752  12.321  0.00  0.00    +0.006 C 
ENDBRANCH  15  18
ENDBRANCH   1  15
TORSDOF 4
ENDMDL
MODEL 8
REMARK VINA RESULT:    -3.319      4.970      6.110
REMARK INTER + INTRA:          -4.689
REMARK INTER:                  -4.044
REMARK INTRA:                  -0.646
REMARK UNBOUND:                -0.594
REMARK  Name = 
REMARK  6 active torsions:
REMARK  status: ('A' for Active; 'I' for Inactive)
REMARK    1  A    between atoms: C_1  and  C_2
REMARK    2  A    between atoms: C_2  and  C_3
REMARK    3  A    between atoms: C_3  and  C_4
REMARK    4  A    between atoms: C_3  and  N_6
REMARK    5  A    between atoms: C_4  and  C_5
REMARK    6  A    between atoms: C_10  and  N_14
REMARK                            x       y       z     vdW  Elec       q    Type
REMARK                         _______ _______ _______ _____ _____    ______ ____
ROOT
ATOM      1  N   UNL     1     -31.685 -11.905  13.931  0.00  0.00    -0.311 N 
ATOM      2  C   UNL     1     -32.078 -11.601  15.275  0.00  0.00    +0.217 A 
ATOM      3  N   UNL     1     -32.573 -12.570  16.089  0.00  0.00    -0.221 NA
ATOM      4  C   UNL     1     -32.947 -12.293  17.363  0.00  0.00    +0.150 A 
ATOM      5  C   UNL     1     -32.819 -10.993  17.872  0.00  0.00    +0.184 A 
ATOM      6  C   UNL     1     -32.329  -9.993  17.004  0.00  0.00    +0.152 A 
ATOM      7  N   UNL     1     -32.255  -8.619  17.397  0.00  0.00    -0.341 N 
ATOM      8  N   UNL     1     -31.967 -10.329  15.736  0.00  0.00    -0.198 NA
ATOM      9  H   UNL     1     -31.291 -11.131  13.349  0.00  0.00    +0.149 HD
ATOM     10  H   UNL     1     -31.816  -7.921  16.757  0.00  0.00    +0.144 HD
ATOM     11  H   UNL     1     -32.733  -8.259  18.251  0.00  0.00    +0.144 HD
ENDROOT
BRANCH   5  12
ATOM     12  N   UNL     1     -33.157 -10.729  19.243  0.00  0.00    +0.061 N 
ATOM     13  O   UNL     1     -33.803  -9.561  19.577  0.00  0.00    -0.126 OA
ATOM     14  O   UNL     1     -33.066 -11.632  20.100  0.00  0.00    -0.126 OA
ENDBRANCH   5  12
BRANCH   1  15
ATOM     15  C   UNL     1     -31.785 -13.258  13.368  0.00  0.00    +0.073 C 
BRANCH  15  17
ATOM     16  C   UNL     1     -33.802 -12.600  11.938  0.00  0.00    +0.006 C 
ATOM     17  C   UNL     1     -32.391 -13.187  11.940  0.00  0.00    +0.019 C 
ENDBRANCH  15  17
BRANCH  15  18
ATOM     18  C   UNL     1     -30.388 -13.922  13.378  0.00  0.00    +0.019 C 
ATOM     19  C   UNL     1     -30.145 -14.792  14.610  0.00  0.00    +0.006 C 
ENDBRANCH  15  18
ENDBRANCH   1  15
TORSDOF 4
ENDMDL
