MODEL 1
REMARK VINA RESULT:    -4.241      0.000      0.000
REMARK INTER + INTRA:          -7.393
REMARK INTER:                  -6.101
REMARK INTRA:                  -1.292
REMARK UNBOUND:                -1.292
REMARK  Name = 
REMARK  10 active torsions:
REMARK  status: ('A' for Active; 'I' for Inactive)
REMARK    1  A    between atoms: C_1  and  O_2
REMARK    2  A    between atoms: O_2  and  C_3
REMARK    3  A    between atoms: C_6  and  C_7
REMARK    4  A    between atoms: C_8  and  C_9
REMARK    5  A    between atoms: C_8  and  C_14
REMARK    6  A    between atoms: C_9  and  C_10
REMARK    7  A    between atoms: C_10  and  C_11
REMARK    8  A    between atoms: C_11  and  O_13
REMARK    9  A    between atoms: C_23  and  O_25
REMARK   10  A    between atoms: O_25  and  C_26
REMARK                            x       y       z     vdW  Elec       q    Type
REMARK                         _______ _______ _______ _____ _____    ______ ____
ROOT
ATOM      1  C   UNL     1     -31.158 -12.911  17.436  0.00  0.00    +0.017 C 
ATOM      2  C   UNL     1     -30.259 -12.103  18.036  0.00  0.00    -0.014 C 
ENDROOT
BRANCH   2   3
ATOM      3  C   UNL     1     -29.285 -12.665  19.007  0.00  0.00    +0.106 A 
ATOM      4  N   UNL     1     -27.955 -12.755  18.747  0.00  0.00    -0.239 NA
ATOM      5  C   UNL     1     -27.279 -13.301  19.791  0.00  0.00    +0.079 A 
ATOM      6  C   UNL     1     -25.901 -13.518  19.811  0.00  0.00    +0.029 A 
ATOM      7  C   UNL     1     -25.324 -14.092  20.957  0.00  0.00    +0.002 A 
ATOM      8  C   UNL     1     -26.127 -14.439  22.062  0.00  0.00    +0.001 A 
ATOM      9  C   UNL     1     -27.513 -14.215  22.031  0.00  0.00    +0.017 A 
ATOM     10  C   UNL     1     -28.057 -13.645  20.883  0.00  0.00    +0.040 A 
ATOM     11  S   UNL     1     -29.656 -13.264  20.555  0.00  0.00    -0.067 S 
ENDBRANCH   2   3
BRANCH   1  15
ATOM     12  C   UNL     1     -34.009 -11.631  14.499  0.00  0.00    +0.124 A 
ATOM     13  C   UNL     1     -34.304 -11.545  15.862  0.00  0.00    +0.046 A 
ATOM     14  C   UNL     1     -33.375 -11.960  16.816  0.00  0.00    +0.015 A 
ATOM     15  C   UNL     1     -32.125 -12.455  16.419  0.00  0.00    +0.017 A 
ATOM     16  C   UNL     1     -31.817 -12.567  15.052  0.00  0.00    +0.131 A 
ATOM     17  C   UNL     1     -32.763 -12.147  14.094  0.00  0.00    +0.091 A 
BRANCH  12  19
ATOM     18  C   UNL     1     -34.710 -10.869  12.222  0.00  0.00    +0.277 C 
ATOM     19  O   UNL     1     -34.979 -11.198  13.581  0.00  0.00    -0.495 OA
ENDBRANCH  12  19
BRANCH  16  20
ATOM     20  O   UNL     1     -30.565 -13.087  14.683  0.00  0.00    -0.494 OA
ATOM     21  C   UNL     1     -30.340 -13.935  13.562  0.00  0.00    +0.277 C 
ENDBRANCH  16  20
ENDBRANCH   1  15
BRANCH   2  22
ATOM     22  C   UNL     1     -30.128 -10.640  17.654  0.00  0.00    +0.049 C 
BRANCH  22  23
ATOM     23  C   UNL     1     -30.348  -9.740  18.873  0.00  0.00    +0.125 C 
BRANCH  23  24
ATOM     24  C   UNL     1     -31.640  -8.996  18.747  0.00  0.00    +0.305 C 
ATOM     25  O   UNL     1     -32.298  -8.693  19.778  0.00  0.00    -0.251 OA
BRANCH  24  26
ATOM     26  O   UNL     1     -32.090  -8.600  17.491  0.00  0.00    -0.481 OA
ATOM     27  H   UNL     1     -32.095  -7.622  17.227  0.00  0.00    +0.295 HD
ENDBRANCH  24  26
ENDBRANCH  23  24
ENDBRANCH  22  23
ENDBRANCH   2  22
TORSDOF 8
ENDMDL
MODEL 2
REMARK VINA RESULT:    -4.148      1.845      3.844
REMARK INTER + INTRA:          -7.259
REMARK INTER:                  -6.267
REMARK INTRA:                  -0.992
REMARK UNBOUND:                -1.292
REMARK  Name = 
REMARK  10 active torsions:
REMARK  status: ('A' for Active; 'I' for Inactive)
REMARK    1  A    between atoms: C_1  and  O_2
REMARK    2  A    between atoms: O_2  and  C_3
REMARK    3  A    between atoms: C_6  and  C_7
REMARK    4  A    between atoms: C_8  and  C_9
REMARK    5  A    between atoms: C_8  and  C_14
REMARK    6  A    between atoms: C_9  and  C_10
REMARK    7  A    between atoms: C_10  and  C_11
REMARK    8  A    between atoms: C_11  and  O_13
REMARK    9  A    between atoms: C_23  and  O_25
REMARK   10  A    between atoms: O_25  and  C_26
REMARK                            x       y       z     vdW  Elec       q    Type
REMARK                         _______ _______ _______ _____ _____    ______ ____
ROOT
ATOM      1  C   UNL     1     -30.826 -10.914  18.200  0.00  0.00    +0.017 C 
ATOM      2  C   UNL     1     -30.604 -12.243  18.280  0.00  0.00    -0.014 C 
ENDROOT
BRANCH   2   3
ATOM      3  C   UNL     1     -29.548 -12.767  19.184  0.00  0.00    +0.106 A 
ATOM      4  N   UNL     1     -28.228 -12.741  18.868  0.00  0.00    -0.239 NA
ATOM      5  C   UNL     1     -27.467 -13.275  19.858  0.00  0.00    +0.079 A 
ATOM      6  C   UNL     1     -26.077 -13.383  19.812  0.00  0.00    +0.029 A 
ATOM      7  C   UNL     1     -25.408 -13.958  20.907  0.00  0.00    +0.002 A 
ATOM      8  C   UNL     1     -26.133 -14.415  22.027  0.00  0.00    +0.001 A 
ATOM      9  C   UNL     1     -27.533 -14.300  22.061  0.00  0.00    +0.017 A 
ATOM     10  C   UNL     1     -28.168 -13.726  20.963  0.00  0.00    +0.040 A 
ATOM     11  S   UNL     1     -29.804 -13.458  20.718  0.00  0.00    -0.067 S 
ENDBRANCH   2   3
BRANCH   1  15
ATOM     12  C   UNL     1     -33.866  -9.104  15.776  0.00  0.00    +0.124 A 
ATOM     13  C   UNL     1     -32.826  -9.828  15.189  0.00  0.00    +0.046 A 
ATOM     14  C   UNL     1     -31.839 -10.418  15.979  0.00  0.00    +0.015 A 
ATOM     15  C   UNL     1     -31.886 -10.304  17.376  0.00  0.00    +0.017 A 
ATOM     16  C   UNL     1     -32.915  -9.564  17.984  0.00  0.00    +0.131 A 
ATOM     17  C   UNL     1     -33.908  -8.970  17.178  0.00  0.00    +0.091 A 
BRANCH  12  19
ATOM     18  C   UNL     1     -35.061  -7.134  14.803  0.00  0.00    +0.277 C 
ATOM     19  O   UNL     1     -34.835  -8.533  14.936  0.00  0.00    -0.495 OA
ENDBRANCH  12  19
BRANCH  16  20
ATOM     20  O   UNL     1     -32.926  -9.448  19.384  0.00  0.00    -0.494 OA
ATOM     21  C   UNL     1     -33.919 -10.012  20.234  0.00  0.00    +0.277 C 
ENDBRANCH  16  20
ENDBRANCH   1  15
BRANCH   2  22
ATOM     22  C   UNL     1     -31.494 -13.240  17.561  0.00  0.00    +0.049 C 
BRANCH  22  23
ATOM     23  C   UNL     1     -30.694 -14.479  17.149  0.00  0.00    +0.125 C 
BRANCH  23  24
ATOM     24  C   UNL     1     -29.663 -14.119  16.126  0.00  0.00    +0.305 C 
ATOM     25  O   UNL     1     -30.014 -13.624  15.022  0.00  0.00    -0.251 OA
BRANCH  24  26
ATOM     26  O   UNL     1     -28.313 -14.291  16.415  0.00  0.00    -0.481 OA
ATOM     27  H   UNL     1     -27.783 -13.559  16.875  0.00  0.00    +0.295 HD
ENDBRANCH  24  26
ENDBRANCH  23  24
ENDBRANCH  22  23
ENDBRANCH   2  22
TORSDOF 8
ENDMDL
MODEL 3
REMARK VINA RESULT:    -4.037      2.396      4.663
REMARK INTER + INTRA:          -7.099
REMARK INTER:                  -5.850
REMARK INTRA:                  -1.250
REMARK UNBOUND:                -1.292
REMARK  Name = 
REMARK  10 active torsions:
REMARK  status: ('A' for Active; 'I' for Inactive)
REMARK    1  A    between atoms: C_1  and  O_2
REMARK    2  A    between atoms: O_2  and  C_3
REMARK    3  A    between atoms: C_6  and  C_7
REMARK    4  A    between atoms: C_8  and  C_9
REMARK    5  A    between atoms: C_8  and  C_14
REMARK    6  A    between atoms: C_9  and  C_10
REMARK    7  A    between atoms: C_10  and  C_11
REMARK    8  A    between atoms: C_11  and  O_13
REMARK    9  A    between atoms: C_23  and  O_25
REMARK   10  A    between atoms: O_25  and  C_26
REMARK                            x       y       z     vdW  Elec       q    Type
REMARK                         _______ _______ _______ _____ _____    ______ ____
ROOT
ATOM      1  C   UNL     1     -30.868 -10.118  20.286  0.00  0.00    +0.017 C 
ATOM      2  C   UNL     1     -29.873 -10.520  19.467  0.00  0.00    -0.014 C 
ENDROOT
BRANCH   2   3
ATOM      3  C   UNL     1     -28.940 -11.591  19.902  0.00  0.00    +0.106 A 
ATOM      4  N   UNL     1     -27.635 -11.628  19.527  0.00  0.00    -0.239 NA
ATOM      5  C   UNL     1     -26.995 -12.703  20.057  0.00  0.00    +0.079 A 
ATOM      6  C   UNL     1     -25.649 -13.001  19.845  0.00  0.00    +0.029 A 
ATOM      7  C   UNL     1     -25.107 -14.147  20.453  0.00  0.00    +0.002 A 
ATOM      8  C   UNL     1     -25.913 -14.975  21.260  0.00  0.00    +0.001 A 
ATOM      9  C   UNL     1     -27.268 -14.664  21.467  0.00  0.00    +0.017 A 
ATOM     10  C   UNL     1     -27.777 -13.523  20.852  0.00  0.00    +0.040 A 
ATOM     11  S   UNL     1     -29.333 -12.903  20.912  0.00  0.00    -0.067 S 
ENDBRANCH   2   3
BRANCH   1  15
ATOM     12  C   UNL     1     -33.795  -7.190  19.165  0.00  0.00    +0.124 A 
ATOM     13  C   UNL     1     -34.086  -8.554  19.084  0.00  0.00    +0.046 A 
ATOM     14  C   UNL     1     -33.133  -9.505  19.451  0.00  0.00    +0.015 A 
ATOM     15  C   UNL     1     -31.875  -9.103  19.921  0.00  0.00    +0.017 A 
ATOM     16  C   UNL     1     -31.557  -7.736  19.992  0.00  0.00    +0.131 A 
ATOM     17  C   UNL     1     -32.525  -6.781  19.618  0.00  0.00    +0.091 A 
BRANCH  12  19
ATOM     18  C   UNL     1     -35.062  -5.893  17.442  0.00  0.00    +0.277 C 
ATOM     19  O   UNL     1     -34.789  -6.275  18.786  0.00  0.00    -0.495 OA
ENDBRANCH  12  19
BRANCH  16  20
ATOM     20  O   UNL     1     -30.281  -7.363  20.446  0.00  0.00    -0.494 OA
ATOM     21  C   UNL     1     -30.020  -6.268  21.317  0.00  0.00    +0.277 C 
ENDBRANCH  16  20
ENDBRANCH   1  15
BRANCH   2  22
ATOM     22  C   UNL     1     -29.750  -9.992  18.050  0.00  0.00    +0.049 C 
BRANCH  22  23
ATOM     23  C   UNL     1     -30.415 -10.949  17.057  0.00  0.00    +0.125 C 
BRANCH  23  24
ATOM     24  C   UNL     1     -31.222 -10.186  16.055  0.00  0.00    +0.305 C 
ATOM     25  O   UNL     1     -31.424 -10.666  14.908  0.00  0.00    -0.251 OA
BRANCH  24  26
ATOM     26  O   UNL     1     -31.785  -8.963  16.407  0.00  0.00    -0.481 OA
ATOM     27  H   UNL     1     -31.256  -8.104  16.320  0.00  0.00    +0.295 HD
ENDBRANCH  24  26
ENDBRANCH  23  24
ENDBRANCH  22  23
ENDBRANCH   2  22
TORSDOF 8
ENDMDL
MODEL 4
REMARK VINA RESULT:    -3.998      2.866      7.716
REMARK INTER + INTRA:          -7.044
REMARK INTER:                  -6.111
REMARK INTRA:                  -0.933
REMARK UNBOUND:                -1.292
REMARK  Name = 
REMARK  10 active torsions:
REMARK  status: ('A' for Active; 'I' for Inactive)
REMARK    1  A    between atoms: C_1  and  O_2
REMARK    2  A    between atoms: O_2  and  C_3
REMARK    3  A    between atoms: C_6  and  C_7
REMARK    4  A    between atoms: C_8  and  C_9
REMARK    5  A    between atoms: C_8  and  C_14
REMARK    6  A    between atoms: C_9  and  C_10
REMARK    7  A    between atoms: C_10  and  C_11
REMARK    8  A    between atoms: C_11  and  O_13
REMARK    9  A    between atoms: C_23  and  O_25
REMARK   10  A    between atoms: O_25  and  C_26
REMARK                            x       y       z     vdW  Elec       q    Type
REMARK                         _______ _______ _______ _____ _____    ______ ____
ROOT
ATOM      1  C   UNL     1     -30.600 -12.429  17.451  0.00  0.00    +0.017 C 
ATOM      2  C   UNL     1     -30.931 -11.214  16.966  0.00  0.00    -0.014 C 
ENDROOT
BRANCH   2   3
ATOM      3  C   UNL     1     -31.913 -11.098  15.857  0.00  0.00    +0.106 A 
ATOM      4  N   UNL     1     -31.944 -11.960  14.808  0.00  0.00    -0.239 NA
ATOM      5  C   UNL     1     -32.932 -11.643  13.932  0.00  0.00    +0.079 A 
ATOM      6  C   UNL     1     -33.203 -12.351  12.760  0.00  0.00    +0.029 A 
ATOM      7  C   UNL     1     -34.257 -11.917  11.938  0.00  0.00    +0.002 A 
ATOM      8  C   UNL     1     -35.023 -10.789  12.295  0.00  0.00    +0.001 A 
ATOM      9  C   UNL     1     -34.742 -10.085  13.478  0.00  0.00    +0.017 A 
ATOM     10  C   UNL     1     -33.692 -10.538  14.273  0.00  0.00    +0.040 A 
ATOM     11  S   UNL     1     -33.126  -9.913  15.722  0.00  0.00    -0.067 S 
ENDBRANCH   2   3
BRANCH   1  15
ATOM     12  C   UNL     1     -27.904 -13.096  20.720  0.00  0.00    +0.124 A 
ATOM     13  C   UNL     1     -27.417 -12.848  19.434  0.00  0.00    +0.046 A 
ATOM     14  C   UNL     1     -28.295 -12.629  18.373  0.00  0.00    +0.015 A 
ATOM     15  C   UNL     1     -29.680 -12.641  18.585  0.00  0.00    +0.017 A 
ATOM     16  C   UNL     1     -30.191 -12.907  19.868  0.00  0.00    +0.131 A 
ATOM     17  C   UNL     1     -29.296 -13.128  20.934  0.00  0.00    +0.091 A 
BRANCH  12  19
ATOM     18  C   UNL     1     -26.126 -14.443  21.851  0.00  0.00    +0.277 C 
ATOM     19  O   UNL     1     -26.978 -13.307  21.753  0.00  0.00    -0.495 OA
ENDBRANCH  12  19
BRANCH  16  20
ATOM     20  O   UNL     1     -31.584 -12.933  20.047  0.00  0.00    -0.494 OA
ATOM     21  C   UNL     1     -32.315 -12.008  20.844  0.00  0.00    +0.277 C 
ENDBRANCH  16  20
ENDBRANCH   1  15
BRANCH   2  22
ATOM     22  C   UNL     1     -30.422  -9.938  17.609  0.00  0.00    +0.049 C 
BRANCH  22  23
ATOM     23  C   UNL     1     -31.414  -9.426  18.658  0.00  0.00    +0.125 C 
BRANCH  23  24
ATOM     24  C   UNL     1     -30.691  -8.717  19.759  0.00  0.00    +0.305 C 
ATOM     25  O   UNL     1     -30.980  -7.522  20.036  0.00  0.00    -0.251 OA
BRANCH  24  26
ATOM     26  O   UNL     1     -29.732  -9.394  20.505  0.00  0.00    -0.481 OA
ATOM     27  H   UNL     1     -28.939  -8.901  20.899  0.00  0.00    +0.295 HD
ENDBRANCH  24  26
ENDBRANCH  23  24
ENDBRANCH  22  23
ENDBRANCH   2  22
TORSDOF 8
ENDMDL
MODEL 5
REMARK VINA RESULT:    -3.837      1.152      2.099
REMARK INTER + INTRA:          -6.812
REMARK INTER:                  -5.639
REMARK INTRA:                  -1.173
REMARK UNBOUND:                -1.292
REMARK  Name = 
REMARK  10 active torsions:
REMARK  status: ('A' for Active; 'I' for Inactive)
REMARK    1  A    between atoms: C_1  and  O_2
REMARK    2  A    between atoms: O_2  and  C_3
REMARK    3  A    between atoms: C_6  and  C_7
REMARK    4  A    between atoms: C_8  and  C_9
REMARK    5  A    between atoms: C_8  and  C_14
REMARK    6  A    between atoms: C_9  and  C_10
REMARK    7  A    between atoms: C_10  and  C_11
REMARK    8  A    between atoms: C_11  and  O_13
REMARK    9  A    between atoms: C_23  and  O_25
REMARK   10  A    between atoms: O_25  and  C_26
REMARK                            x       y       z     vdW  Elec       q    Type
REMARK                         _______ _______ _______ _____ _____    ______ ____
ROOT
ATOM      1  C   UNL     1     -31.229 -12.955  17.390  0.00  0.00    +0.017 C 
ATOM      2  C   UNL     1     -30.297 -12.151  17.944  0.00  0.00    -0.014 C 
ENDROOT
BRANCH   2   3
ATOM      3  C   UNL     1     -29.337 -12.701  18.936  0.00  0.00    +0.106 A 
ATOM      4  N   UNL     1     -27.999 -12.763  18.710  0.00  0.00    -0.239 NA
ATOM      5  C   UNL     1     -27.340 -13.301  19.769  0.00  0.00    +0.079 A 
ATOM      6  C   UNL     1     -25.959 -13.491  19.823  0.00  0.00    +0.029 A 
ATOM      7  C   UNL     1     -25.400 -14.061  20.980  0.00  0.00    +0.002 A 
ATOM      8  C   UNL     1     -26.224 -14.431  22.062  0.00  0.00    +0.001 A 
ATOM      9  C   UNL     1     -27.614 -14.234  21.997  0.00  0.00    +0.017 A 
ATOM     10  C   UNL     1     -28.139 -13.668  20.838  0.00  0.00    +0.040 A 
ATOM     11  S   UNL     1     -29.736 -13.316  20.472  0.00  0.00    -0.067 S 
ENDBRANCH   2   3
BRANCH   1  15
ATOM     12  C   UNL     1     -33.968 -11.634  14.365  0.00  0.00    +0.124 A 
ATOM     13  C   UNL     1     -32.756 -12.234  14.014  0.00  0.00    +0.046 A 
ATOM     14  C   UNL     1     -31.868 -12.665  14.999  0.00  0.00    +0.015 A 
ATOM     15  C   UNL     1     -32.186 -12.515  16.356  0.00  0.00    +0.017 A 
ATOM     16  C   UNL     1     -33.392 -11.896  16.729  0.00  0.00    +0.131 A 
ATOM     17  C   UNL     1     -34.284 -11.462  15.727  0.00  0.00    +0.091 A 
BRANCH  12  19
ATOM     18  C   UNL     1     -35.032  -9.864  12.954  0.00  0.00    +0.277 C 
ATOM     19  O   UNL     1     -34.827 -11.220  13.335  0.00  0.00    -0.495 OA
ENDBRANCH  12  19
BRANCH  16  20
ATOM     20  O   UNL     1     -33.675 -11.739  18.097  0.00  0.00    -0.494 OA
ATOM     21  C   UNL     1     -34.188 -10.549  18.685  0.00  0.00    +0.277 C 
ENDBRANCH  16  20
ENDBRANCH   1  15
BRANCH   2  22
ATOM     22  C   UNL     1     -30.115 -10.715  17.489  0.00  0.00    +0.049 C 
BRANCH  22  23
ATOM     23  C   UNL     1     -29.751  -9.815  18.672  0.00  0.00    +0.125 C 
BRANCH  23  24
ATOM     24  C   UNL     1     -30.942  -9.024  19.113  0.00  0.00    +0.305 C 
ATOM     25  O   UNL     1     -31.661  -8.436  18.261  0.00  0.00    -0.251 OA
BRANCH  24  26
ATOM     26  O   UNL     1     -31.280  -8.975  20.462  0.00  0.00    -0.481 OA
ATOM     27  H   UNL     1     -30.789  -9.545  21.140  0.00  0.00    +0.295 HD
ENDBRANCH  24  26
ENDBRANCH  23  24
ENDBRANCH  22  23
ENDBRANCH   2  22
TORSDOF 8
ENDMDL
MODEL 6
REMARK VINA RESULT:    -3.736      3.857      6.429
REMARK INTER + INTRA:          -6.666
REMARK INTER:                  -5.499
REMARK INTRA:                  -1.167
REMARK UNBOUND:                -1.292
REMARK  Name = 
REMARK  10 active torsions:
REMARK  status: ('A' for Active; 'I' for Inactive)
REMARK    1  A    between atoms: C_1  and  O_2
REMARK    2  A    between atoms: O_2  and  C_3
REMARK    3  A    between atoms: C_6  and  C_7
REMARK    4  A    between atoms: C_8  and  C_9
REMARK    5  A    between atoms: C_8  and  C_14
REMARK    6  A    between atoms: C_9  and  C_10
REMARK    7  A    between atoms: C_10  and  C_11
REMARK    8  A    between atoms: C_11  and  O_13
REMARK    9  A    between atoms: C_23  and  O_25
REMARK   10  A    between atoms: O_25  and  C_26
REMARK                            x       y       z     vdW  Elec       q    Type
REMARK                         _______ _______ _______ _____ _____    ______ ____
ROOT
ATOM      1  C   UNL     1     -33.264 -10.439  17.240  0.00  0.00    +0.017 C 
ATOM      2  C   UNL     1     -32.020 -10.489  16.719  0.00  0.00    -0.014 C 
ENDROOT
BRANCH   2   3
ATOM      3  C   UNL     1     -31.693 -11.488  15.669  0.00  0.00    +0.106 A 
ATOM      4  N   UNL     1     -30.763 -12.462  15.844  0.00  0.00    -0.239 NA
ATOM      5  C   UNL     1     -30.651 -13.247  14.741  0.00  0.00    +0.079 A 
ATOM      6  C   UNL     1     -29.776 -14.328  14.629  0.00  0.00    +0.029 A 
ATOM      7  C   UNL     1     -29.759 -15.061  13.430  0.00  0.00    +0.002 A 
ATOM      8  C   UNL     1     -30.611 -14.708  12.365  0.00  0.00    +0.001 A 
ATOM      9  C   UNL     1     -31.489 -13.618  12.490  0.00  0.00    +0.017 A 
ATOM     10  C   UNL     1     -31.485 -12.910  13.688  0.00  0.00    +0.040 A 
ATOM     11  S   UNL     1     -32.407 -11.581  14.127  0.00  0.00    -0.067 S 
ENDBRANCH   2   3
BRANCH   1  15
ATOM     12  C   UNL     1     -34.480  -7.518  20.134  0.00  0.00    +0.124 A 
ATOM     13  C   UNL     1     -34.615  -7.264  18.768  0.00  0.00    +0.046 A 
ATOM     14  C   UNL     1     -34.220  -8.216  17.827  0.00  0.00    +0.015 A 
ATOM     15  C   UNL     1     -33.697  -9.448  18.243  0.00  0.00    +0.017 A 
ATOM     16  C   UNL     1     -33.537  -9.715  19.614  0.00  0.00    +0.131 A 
ATOM     17  C   UNL     1     -33.937  -8.746  20.557  0.00  0.00    +0.091 A 
BRANCH  12  19
ATOM     18  C   UNL     1     -34.281  -5.249  21.169  0.00  0.00    +0.277 C 
ATOM     19  O   UNL     1     -34.895  -6.527  21.038  0.00  0.00    -0.495 OA
ENDBRANCH  12  19
BRANCH  16  20
ATOM     20  O   UNL     1     -32.990 -10.950  20.002  0.00  0.00    -0.494 OA
ATOM     21  C   UNL     1     -32.399 -11.211  21.270  0.00  0.00    +0.277 C 
ENDBRANCH  16  20
ENDBRANCH   1  15
BRANCH   2  22
ATOM     22  C   UNL     1     -30.965  -9.461  17.085  0.00  0.00    +0.049 C 
BRANCH  22  23
ATOM     23  C   UNL     1     -29.678 -10.150  17.550  0.00  0.00    +0.125 C 
BRANCH  23  24
ATOM     24  C   UNL     1     -29.557 -10.080  19.040  0.00  0.00    +0.305 C 
ATOM     25  O   UNL     1     -29.194 -11.095  19.692  0.00  0.00    -0.251 OA
BRANCH  24  26
ATOM     26  O   UNL     1     -29.803  -8.880  19.698  0.00  0.00    -0.481 OA
ATOM     27  H   UNL     1     -29.806  -8.002  19.192  0.00  0.00    +0.295 HD
ENDBRANCH  24  26
ENDBRANCH  23  24
ENDBRANCH  22  23
ENDBRANCH   2  22
TORSDOF 8
ENDMDL
MODEL 7
REMARK VINA RESULT:    -3.512      3.534      5.941
REMARK INTER + INTRA:          -6.344
REMARK INTER:                  -4.779
REMARK INTRA:                  -1.565
REMARK UNBOUND:                -1.292
REMARK  Name = 
REMARK  10 active torsions:
REMARK  status: ('A' for Active; 'I' for Inactive)
REMARK    1  A    between atoms: C_1  and  O_2
REMARK    2  A    between atoms: O_2  and  C_3
REMARK    3  A    between atoms: C_6  and  C_7
REMARK    4  A    between atoms: C_8  and  C_9
REMARK    5  A    between atoms: C_8  and  C_14
REMARK    6  A    between atoms: C_9  and  C_10
REMARK    7  A    between atoms: C_10  and  C_11
REMARK    8  A    between atoms: C_11  and  O_13
REMARK    9  A    between atoms: C_23  and  O_25
REMARK   10  A    between atoms: O_25  and  C_26
REMARK                            x       y       z     vdW  Elec       q    Type
REMARK                         _______ _______ _______ _____ _____    ______ ____
ROOT
ATOM      1  C   UNL     1     -32.700 -11.491  16.504  0.00  0.00    +0.017 C 
ATOM      2  C   UNL     1     -32.124 -10.439  17.122  0.00  0.00    -0.014 C 
ENDROOT
BRANCH   2   3
ATOM      3  C   UNL     1     -32.811  -9.778  18.261  0.00  0.00    +0.106 A 
ATOM      4  N   UNL     1     -33.314  -8.518  18.187  0.00  0.00    -0.239 NA
ATOM      5  C   UNL     1     -33.895  -8.144  19.356  0.00  0.00    +0.079 A 
ATOM      6  C   UNL     1     -34.496  -6.904  19.576  0.00  0.00    +0.029 A 
ATOM      7  C   UNL     1     -35.062  -6.642  20.835  0.00  0.00    +0.002 A 
ATOM      8  C   UNL     1     -35.022  -7.617  21.852  0.00  0.00    +0.001 A 
ATOM      9  C   UNL     1     -34.416  -8.862  21.619  0.00  0.00    +0.017 A 
ATOM     10  C   UNL     1     -33.863  -9.094  20.362  0.00  0.00    +0.040 A 
ATOM     11  S   UNL     1     -33.082 -10.464  19.794  0.00  0.00    -0.067 S 
ENDBRANCH   2   3
BRANCH   1  15
ATOM     12  C   UNL     1     -30.926 -13.709  13.291  0.00  0.00    +0.124 A 
ATOM     13  C   UNL     1     -31.868 -12.711  13.031  0.00  0.00    +0.046 A 
ATOM     14  C   UNL     1     -32.443 -11.989  14.077  0.00  0.00    +0.015 A 
ATOM     15  C   UNL     1     -32.070 -12.246  15.404  0.00  0.00    +0.017 A 
ATOM     16  C   UNL     1     -31.138 -13.260  15.687  0.00  0.00    +0.131 A 
ATOM     17  C   UNL     1     -30.563 -13.985  14.624  0.00  0.00    +0.091 A 
BRANCH  12  19
ATOM     18  C   UNL     1     -29.113 -15.060  12.220  0.00  0.00    +0.277 C 
ATOM     19  O   UNL     1     -30.376 -14.404  12.202  0.00  0.00    -0.495 OA
ENDBRANCH  12  19
BRANCH  16  20
ATOM     20  O   UNL     1     -30.799 -13.510  17.028  0.00  0.00    -0.494 OA
ATOM     21  C   UNL     1     -31.037 -14.737  17.707  0.00  0.00    +0.277 C 
ENDBRANCH  16  20
ENDBRANCH   1  15
BRANCH   2  22
ATOM     22  C   UNL     1     -30.721  -9.982  16.768  0.00  0.00    +0.049 C 
BRANCH  22  23
ATOM     23  C   UNL     1     -29.880  -9.785  18.033  0.00  0.00    +0.125 C 
BRANCH  23  24
ATOM     24  C   UNL     1     -28.838 -10.853  18.139  0.00  0.00    +0.305 C 
ATOM     25  O   UNL     1     -27.639 -10.597  17.849  0.00  0.00    -0.251 OA
BRANCH  24  26
ATOM     26  O   UNL     1     -29.188 -12.118  18.601  0.00  0.00    -0.481 OA
ATOM     27  H   UNL     1     -28.786 -12.951  18.188  0.00  0.00    +0.295 HD
ENDBRANCH  24  26
ENDBRANCH  23  24
ENDBRANCH  22  23
ENDBRANCH   2  22
TORSDOF 8
ENDMDL
