MODEL 1
REMARK VINA RESULT:    -5.139      0.000      0.000
REMARK INTER + INTRA:          -6.500
REMARK INTER:                  -6.041
REMARK INTRA:                  -0.459
REMARK UNBOUND:                -0.459
REMARK  Name = 
REMARK  4 active torsions:
REMARK  status: ('A' for Active; 'I' for Inactive)
REMARK    1  A    between atoms: C_1  and  C_2
REMARK    2  A    between atoms: C_5  and  N_9
REMARK    3  A    between atoms: C_10  and  C_12
REMARK    4  A    between atoms: C_16  and  C_18
REMARK                            x       y       z     vdW  Elec       q    Type
REMARK                         _______ _______ _______ _____ _____    ______ ____
ROOT
ATOM      1  N   UNL     1     -30.266 -12.596  16.850  0.00  0.00    -0.281 N 
ATOM      2  C   UNL     1     -30.365 -13.647  15.870  0.00  0.00    +0.248 C 
ATOM      3  O   UNL     1     -29.821 -14.765  16.089  0.00  0.00    -0.270 OA
ATOM      4  H   UNL     1     -30.600 -11.638  16.606  0.00  0.00    +0.155 HD
ENDROOT
BRANCH   1   9
ATOM      5  C   UNL     1     -27.938 -13.373  22.062  0.00  0.00    +0.045 C 
ATOM      6  C   UNL     1     -28.529 -13.161  20.696  0.00  0.00    -0.032 A 
ATOM      7  C   UNL     1     -29.917 -13.257  20.510  0.00  0.00    +0.006 A 
ATOM      8  C   UNL     1     -30.477 -13.067  19.245  0.00  0.00    +0.023 A 
ATOM      9  C   UNL     1     -29.664 -12.763  18.145  0.00  0.00    +0.035 A 
ATOM     10  C   UNL     1     -28.272 -12.694  18.321  0.00  0.00    +0.043 A 
ATOM     11  C   UNL     1     -27.704 -12.885  19.587  0.00  0.00    +0.046 A 
ATOM     12 CL   UNL     1     -25.954 -12.786  19.746  0.00  0.00    -0.083 Cl
ENDBRANCH   1   9
BRANCH   2  13
ATOM     13  C   UNL     1     -31.090 -13.442  14.593  0.00  0.00    +0.038 A 
ATOM     14  C   UNL     1     -30.620 -13.995  13.389  0.00  0.00    +0.013 A 
ATOM     15  C   UNL     1     -31.324 -13.797  12.200  0.00  0.00    +0.001 A 
ATOM     16  C   UNL     1     -32.503 -13.050  12.193  0.00  0.00    +0.013 A 
ATOM     17  C   UNL     1     -32.996 -12.489  13.385  0.00  0.00    +0.037 A 
ATOM     18  C   UNL     1     -32.287 -12.703  14.582  0.00  0.00    +0.026 A 
BRANCH  17  19
ATOM     19  C   UNL     1     -34.253 -11.702  13.399  0.00  0.00    +0.242 C 
ATOM     20  N   UNL     1     -35.036 -11.521  12.215  0.00  0.00    -0.325 N 
ATOM     21  O   UNL     1     -34.642 -11.166  14.472  0.00  0.00    -0.270 OA
ATOM     22  H   UNL     1     -34.686 -11.806  11.275  0.00  0.00    +0.145 HD
ATOM     23  H   UNL     1     -35.947 -11.013  12.267  0.00  0.00    +0.145 HD
ENDBRANCH  17  19
ENDBRANCH   2  13
TORSDOF 3
ENDMDL
MODEL 2
REMARK VINA RESULT:    -5.087      3.084      7.989
REMARK INTER + INTRA:          -6.438
REMARK INTER:                  -5.985
REMARK INTRA:                  -0.453
REMARK UNBOUND:                -0.459
REMARK  Name = 
REMARK  4 active torsions:
REMARK  status: ('A' for Active; 'I' for Inactive)
REMARK    1  A    between atoms: C_1  and  C_2
REMARK    2  A    between atoms: C_5  and  N_9
REMARK    3  A    between atoms: C_10  and  C_12
REMARK    4  A    between atoms: C_16  and  C_18
REMARK                            x       y       z     vdW  Elec       q    Type
REMARK                         _______ _______ _______ _____ _____    ______ ____
ROOT
ATOM      1  N   UNL     1     -29.955 -12.455  17.028  0.00  0.00    -0.281 N 
ATOM      2  C   UNL     1     -30.321 -13.173  18.221  0.00  0.00    +0.248 C 
ATOM      3  O   UNL     1     -31.334 -13.927  18.217  0.00  0.00    -0.270 OA
ATOM      4  H   UNL     1     -29.201 -11.735  17.078  0.00  0.00    +0.155 HD
ENDROOT
BRANCH   1   9
ATOM      5  C   UNL     1     -32.603 -12.967  11.938  0.00  0.00    +0.045 C 
ATOM      6  C   UNL     1     -31.905 -12.852  13.264  0.00  0.00    -0.032 A 
ATOM      7  C   UNL     1     -32.292 -11.857  14.176  0.00  0.00    +0.006 A 
ATOM      8  C   UNL     1     -31.647 -11.736  15.409  0.00  0.00    +0.023 A 
ATOM      9  C   UNL     1     -30.616 -12.617  15.762  0.00  0.00    +0.035 A 
ATOM     10  C   UNL     1     -30.207 -13.596  14.841  0.00  0.00    +0.043 A 
ATOM     11  C   UNL     1     -30.848 -13.720  13.603  0.00  0.00    +0.046 A 
ATOM     12 CL   UNL     1     -30.292 -14.967  12.490  0.00  0.00    -0.083 Cl
ENDBRANCH   1   9
BRANCH   2  13
ATOM     13  C   UNL     1     -29.534 -13.042  19.471  0.00  0.00    +0.038 A 
ATOM     14  C   UNL     1     -30.051 -12.372  20.594  0.00  0.00    +0.013 A 
ATOM     15  C   UNL     1     -29.296 -12.268  21.763  0.00  0.00    +0.001 A 
ATOM     16  C   UNL     1     -28.020 -12.829  21.832  0.00  0.00    +0.013 A 
ATOM     17  C   UNL     1     -27.480 -13.507  20.724  0.00  0.00    +0.037 A 
ATOM     18  C   UNL     1     -28.253 -13.618  19.553  0.00  0.00    +0.026 A 
BRANCH  17  19
ATOM     19  C   UNL     1     -26.131 -14.119  20.782  0.00  0.00    +0.242 C 
ATOM     20  N   UNL     1     -25.777 -15.054  21.806  0.00  0.00    -0.325 N 
ATOM     21  O   UNL     1     -25.264 -13.803  19.922  0.00  0.00    -0.270 OA
ATOM     22  H   UNL     1     -26.395 -15.230  22.628  0.00  0.00    +0.145 HD
ATOM     23  H   UNL     1     -24.840 -15.514  21.788  0.00  0.00    +0.145 HD
ENDBRANCH  17  19
ENDBRANCH   2  13
TORSDOF 3
ENDMDL
MODEL 3
REMARK VINA RESULT:    -5.048      3.262      8.080
REMARK INTER + INTRA:          -6.392
REMARK INTER:                  -5.954
REMARK INTRA:                  -0.438
REMARK UNBOUND:                -0.459
REMARK  Name = 
REMARK  4 active torsions:
REMARK  status: ('A' for Active; 'I' for Inactive)
REMARK    1  A    between atoms: C_1  and  C_2
REMARK    2  A    between atoms: C_5  and  N_9
REMARK    3  A    between atoms: C_10  and  C_12
REMARK    4  A    between atoms: C_16  and  C_18
REMARK                            x       y       z     vdW  Elec       q    Type
REMARK                         _______ _______ _______ _____ _____    ______ ____
ROOT
ATOM      1  N   UNL     1     -30.128 -12.401  16.990  0.00  0.00    -0.281 N 
ATOM      2  C   UNL     1     -30.350 -13.257  18.127  0.00  0.00    +0.248 C 
ATOM      3  O   UNL     1     -31.239 -14.151  18.078  0.00  0.00    -0.270 OA
ATOM      4  H   UNL     1     -29.489 -11.581  17.086  0.00  0.00    +0.155 HD
ENDROOT
BRANCH   1   9
ATOM      5  C   UNL     1     -32.783 -13.181  11.938  0.00  0.00    +0.045 C 
ATOM      6  C   UNL     1     -32.099 -12.959  13.258  0.00  0.00    -0.032 A 
ATOM      7  C   UNL     1     -30.986 -13.740  13.610  0.00  0.00    +0.006 A 
ATOM      8  C   UNL     1     -30.345 -13.547  14.836  0.00  0.00    +0.023 A 
ATOM      9  C   UNL     1     -30.793 -12.561  15.726  0.00  0.00    +0.035 A 
ATOM     10  C   UNL     1     -31.923 -11.797  15.389  0.00  0.00    +0.043 A 
ATOM     11  C   UNL     1     -32.571 -11.987  14.162  0.00  0.00    +0.046 A 
ATOM     12 CL   UNL     1     -33.982 -11.000  13.796  0.00  0.00    -0.083 Cl
ENDBRANCH   1   9
BRANCH   2  13
ATOM     13  C   UNL     1     -29.557 -13.105  19.371  0.00  0.00    +0.038 A 
ATOM     14  C   UNL     1     -30.089 -12.466  20.504  0.00  0.00    +0.013 A 
ATOM     15  C   UNL     1     -29.328 -12.342  21.667  0.00  0.00    +0.001 A 
ATOM     16  C   UNL     1     -28.030 -12.854  21.720  0.00  0.00    +0.013 A 
ATOM     17  C   UNL     1     -27.475 -13.500  20.601  0.00  0.00    +0.037 A 
ATOM     18  C   UNL     1     -28.254 -13.632  19.435  0.00  0.00    +0.026 A 
BRANCH  17  19
ATOM     19  C   UNL     1     -26.102 -14.060  20.642  0.00  0.00    +0.242 C 
ATOM     20  N   UNL     1     -25.730 -15.061  21.593  0.00  0.00    -0.325 N 
ATOM     21  O   UNL     1     -25.232 -13.639  19.832  0.00  0.00    -0.270 OA
ATOM     22  H   UNL     1     -26.357 -15.331  22.382  0.00  0.00    +0.145 HD
ATOM     23  H   UNL     1     -24.775 -15.480  21.561  0.00  0.00    +0.145 HD
ENDBRANCH  17  19
ENDBRANCH   2  13
TORSDOF 3
ENDMDL
MODEL 4
REMARK VINA RESULT:    -4.515      1.730      2.342
REMARK INTER + INTRA:          -5.766
REMARK INTER:                  -5.354
REMARK INTRA:                  -0.412
REMARK UNBOUND:                -0.459
REMARK  Name = 
REMARK  4 active torsions:
REMARK  status: ('A' for Active; 'I' for Inactive)
REMARK    1  A    between atoms: C_1  and  C_2
REMARK    2  A    between atoms: C_5  and  N_9
REMARK    3  A    between atoms: C_10  and  C_12
REMARK    4  A    between atoms: C_16  and  C_18
REMARK                            x       y       z     vdW  Elec       q    Type
REMARK                         _______ _______ _______ _____ _____    ______ ____
ROOT
ATOM      1  N   UNL     1     -29.969 -11.834  18.291  0.00  0.00    -0.281 N 
ATOM      2  C   UNL     1     -30.256 -12.385  16.992  0.00  0.00    +0.248 C 
ATOM      3  O   UNL     1     -29.623 -13.398  16.585  0.00  0.00    -0.270 OA
ATOM      4  H   UNL     1     -30.398 -10.922  18.564  0.00  0.00    +0.155 HD
ENDROOT
BRANCH   1   9
ATOM      5  C   UNL     1     -26.409 -14.342  22.062  0.00  0.00    +0.045 C 
ATOM      6  C   UNL     1     -27.323 -13.676  21.072  0.00  0.00    -0.032 A 
ATOM      7  C   UNL     1     -28.715 -13.780  21.223  0.00  0.00    +0.006 A 
ATOM      8  C   UNL     1     -29.575 -13.170  20.306  0.00  0.00    +0.023 A 
ATOM      9  C   UNL     1     -29.061 -12.431  19.232  0.00  0.00    +0.035 A 
ATOM     10  C   UNL     1     -27.669 -12.348  19.062  0.00  0.00    +0.043 A 
ATOM     11  C   UNL     1     -26.802 -12.959  19.976  0.00  0.00    +0.046 A 
ATOM     12 CL   UNL     1     -25.067 -12.819  19.711  0.00  0.00    -0.083 Cl
ENDBRANCH   1   9
BRANCH   2  13
ATOM     13  C   UNL     1     -31.281 -11.779  16.108  0.00  0.00    +0.038 A 
ATOM     14  C   UNL     1     -31.823 -10.511  16.379  0.00  0.00    +0.013 A 
ATOM     15  C   UNL     1     -32.781  -9.957  15.528  0.00  0.00    +0.001 A 
ATOM     16  C   UNL     1     -33.209 -10.654  14.397  0.00  0.00    +0.013 A 
ATOM     17  C   UNL     1     -32.681 -11.924  14.102  0.00  0.00    +0.037 A 
ATOM     18  C   UNL     1     -31.706 -12.471  14.959  0.00  0.00    +0.026 A 
BRANCH  17  19
ATOM     19  C   UNL     1     -33.116 -12.675  12.900  0.00  0.00    +0.242 C 
ATOM     20  N   UNL     1     -34.499 -12.924  12.633  0.00  0.00    -0.325 N 
ATOM     21  O   UNL     1     -32.252 -13.120  12.096  0.00  0.00    -0.270 OA
ATOM     22  H   UNL     1     -35.241 -12.719  13.337  0.00  0.00    +0.145 HD
ATOM     23  H   UNL     1     -34.779 -13.404  11.749  0.00  0.00    +0.145 HD
ENDBRANCH  17  19
ENDBRANCH   2  13
TORSDOF 3
ENDMDL
MODEL 5
REMARK VINA RESULT:    -4.378      3.995      5.250
REMARK INTER + INTRA:          -5.604
REMARK INTER:                  -5.141
REMARK INTRA:                  -0.463
REMARK UNBOUND:                -0.459
REMARK  Name = 
REMARK  4 active torsions:
REMARK  status: ('A' for Active; 'I' for Inactive)
REMARK    1  A    between atoms: C_1  and  C_2
REMARK    2  A    between atoms: C_5  and  N_9
REMARK    3  A    between atoms: C_10  and  C_12
REMARK    4  A    between atoms: C_16  and  C_18
REMARK                            x       y       z     vdW  Elec       q    Type
REMARK                         _______ _______ _______ _____ _____    ______ ____
ROOT
ATOM      1  N   UNL     1     -32.873 -10.729  16.504  0.00  0.00    -0.281 N 
ATOM      2  C   UNL     1     -33.804 -11.484  15.707  0.00  0.00    +0.248 C 
ATOM      3  O   UNL     1     -34.982 -11.669  16.122  0.00  0.00    -0.270 OA
ATOM      4  H   UNL     1     -31.869 -10.695  16.219  0.00  0.00    +0.155 HD
ENDROOT
BRANCH   1   9
ATOM      5  C   UNL     1     -34.388  -7.986  21.338  0.00  0.00    +0.045 C 
ATOM      6  C   UNL     1     -33.983  -8.716  20.087  0.00  0.00    -0.032 A 
ATOM      7  C   UNL     1     -34.019  -8.056  18.848  0.00  0.00    +0.006 A 
ATOM      8  C   UNL     1     -33.651  -8.725  17.679  0.00  0.00    +0.023 A 
ATOM      9  C   UNL     1     -33.224 -10.058  17.726  0.00  0.00    +0.035 A 
ATOM     10  C   UNL     1     -33.213 -10.731  18.960  0.00  0.00    +0.043 A 
ATOM     11  C   UNL     1     -33.584 -10.067  20.136  0.00  0.00    +0.046 A 
ATOM     12 CL   UNL     1     -33.550 -10.961  21.652  0.00  0.00    -0.083 Cl
ENDBRANCH   1   9
BRANCH   2  13
ATOM     13  C   UNL     1     -33.407 -12.065  14.402  0.00  0.00    +0.038 A 
ATOM     14  C   UNL     1     -34.199 -11.893  13.254  0.00  0.00    +0.013 A 
ATOM     15  C   UNL     1     -33.801 -12.441  12.033  0.00  0.00    +0.001 A 
ATOM     16  C   UNL     1     -32.611 -13.164  11.938  0.00  0.00    +0.013 A 
ATOM     17  C   UNL     1     -31.798 -13.348  13.071  0.00  0.00    +0.037 A 
ATOM     18  C   UNL     1     -32.201 -12.782  14.296  0.00  0.00    +0.026 A 
BRANCH  17  19
ATOM     19  C   UNL     1     -30.525 -14.103  12.987  0.00  0.00    +0.242 C 
ATOM     20  N   UNL     1     -29.461 -13.883  13.918  0.00  0.00    -0.325 N 
ATOM     21  O   UNL     1     -30.361 -14.950  12.068  0.00  0.00    -0.270 OA
ATOM     22  H   UNL     1     -29.479 -13.090  14.596  0.00  0.00    +0.145 HD
ATOM     23  H   UNL     1     -28.599 -14.470  13.871  0.00  0.00    +0.145 HD
ENDBRANCH  17  19
ENDBRANCH   2  13
TORSDOF 3
ENDMDL
MODEL 6
REMARK VINA RESULT:    -4.371      1.936      2.239
REMARK INTER + INTRA:          -5.597
REMARK INTER:                  -5.113
REMARK INTRA:                  -0.484
REMARK UNBOUND:                -0.459
REMARK  Name = 
REMARK  4 active torsions:
REMARK  status: ('A' for Active; 'I' for Inactive)
REMARK    1  A    between atoms: C_1  and  C_2
REMARK    2  A    between atoms: C_5  and  N_9
REMARK    3  A    between atoms: C_10  and  C_12
REMARK    4  A    between atoms: C_16  and  C_18
REMARK                            x       y       z     vdW  Elec       q    Type
REMARK                         _______ _______ _______ _____ _____    ______ ____
ROOT
ATOM      1  N   UNL     1     -30.082 -11.913  17.921  0.00  0.00    -0.281 N 
ATOM      2  C   UNL     1     -30.524 -12.675  16.782  0.00  0.00    +0.248 C 
ATOM      3  O   UNL     1     -30.085 -13.843  16.597  0.00  0.00    -0.270 OA
ATOM      4  H   UNL     1     -30.343 -10.905  17.992  0.00  0.00    +0.155 HD
ENDROOT
BRANCH   1   9
ATOM      5  C   UNL     1     -26.748 -14.130  22.062  0.00  0.00    +0.045 C 
ATOM      6  C   UNL     1     -27.602 -13.540  20.976  0.00  0.00    -0.032 A 
ATOM      7  C   UNL     1     -29.001 -13.650  21.046  0.00  0.00    +0.006 A 
ATOM      8  C   UNL     1     -29.805 -13.110  20.040  0.00  0.00    +0.023 A 
ATOM      9  C   UNL     1     -29.230 -12.438  18.953  0.00  0.00    +0.035 A 
ATOM     10  C   UNL     1     -27.831 -12.350  18.865  0.00  0.00    +0.043 A 
ATOM     11  C   UNL     1     -27.019 -12.891  19.869  0.00  0.00    +0.046 A 
ATOM     12 CL   UNL     1     -25.272 -12.750  19.704  0.00  0.00    -0.083 Cl
ENDBRANCH   1   9
BRANCH   2  13
ATOM     13  C   UNL     1     -31.487 -12.110  15.805  0.00  0.00    +0.038 A 
ATOM     14  C   UNL     1     -31.801 -12.787  14.614  0.00  0.00    +0.013 A 
ATOM     15  C   UNL     1     -32.717 -12.241  13.713  0.00  0.00    +0.001 A 
ATOM     16  C   UNL     1     -33.332 -11.018  13.985  0.00  0.00    +0.013 A 
ATOM     17  C   UNL     1     -33.037 -10.322  15.171  0.00  0.00    +0.037 A 
ATOM     18  C   UNL     1     -32.122 -10.885  16.080  0.00  0.00    +0.026 A 
BRANCH  17  19
ATOM     19  C   UNL     1     -33.689  -9.027  15.482  0.00  0.00    +0.242 C 
ATOM     20  N   UNL     1     -33.449  -8.346  16.717  0.00  0.00    -0.325 N 
ATOM     21  O   UNL     1     -34.487  -8.514  14.651  0.00  0.00    -0.270 OA
ATOM     22  H   UNL     1     -32.927  -8.795  17.501  0.00  0.00    +0.145 HD
ATOM     23  H   UNL     1     -33.875  -7.408  16.885  0.00  0.00    +0.145 HD
ENDBRANCH  17  19
ENDBRANCH   2  13
TORSDOF 3
ENDMDL
MODEL 7
REMARK VINA RESULT:    -4.337      5.119      8.215
REMARK INTER + INTRA:          -5.557
REMARK INTER:                  -5.116
REMARK INTRA:                  -0.441
REMARK UNBOUND:                -0.459
REMARK  Name = 
REMARK  4 active torsions:
REMARK  status: ('A' for Active; 'I' for Inactive)
REMARK    1  A    between atoms: C_1  and  C_2
REMARK    2  A    between atoms: C_5  and  N_9
REMARK    3  A    between atoms: C_10  and  C_12
REMARK    4  A    between atoms: C_16  and  C_18
REMARK                            x       y       z     vdW  Elec       q    Type
REMARK                         _______ _______ _______ _____ _____    ______ ____
ROOT
ATOM      1  N   UNL     1     -32.990  -9.368  16.005  0.00  0.00    -0.281 N 
ATOM      2  C   UNL     1     -33.515  -9.492  17.340  0.00  0.00    +0.248 C 
ATOM      3  O   UNL     1     -34.174 -10.519  17.665  0.00  0.00    -0.270 OA
ATOM      4  H   UNL     1     -32.565  -8.463  15.707  0.00  0.00    +0.155 HD
ENDROOT
BRANCH   1   9
ATOM      5  C   UNL     1     -33.373 -13.431  11.939  0.00  0.00    +0.045 C 
ATOM      6  C   UNL     1     -33.258 -12.381  13.009  0.00  0.00    -0.032 A 
ATOM      7  C   UNL     1     -34.288 -11.443  13.183  0.00  0.00    +0.006 A 
ATOM      8  C   UNL     1     -34.192 -10.460  14.170  0.00  0.00    +0.023 A 
ATOM      9  C   UNL     1     -33.073 -10.405  15.013  0.00  0.00    +0.035 A 
ATOM     10  C   UNL     1     -32.028 -11.325  14.823  0.00  0.00    +0.043 A 
ATOM     11  C   UNL     1     -32.118 -12.311  13.834  0.00  0.00    +0.046 A 
ATOM     12 CL   UNL     1     -30.777 -13.436  13.645  0.00  0.00    -0.083 Cl
ENDBRANCH   1   9
BRANCH   2  13
ATOM     13  C   UNL     1     -33.305  -8.429  18.352  0.00  0.00    +0.038 A 
ATOM     14  C   UNL     1     -34.302  -7.478  18.630  0.00  0.00    +0.013 A 
ATOM     15  C   UNL     1     -34.087  -6.490  19.593  0.00  0.00    +0.001 A 
ATOM     16  C   UNL     1     -32.880  -6.437  20.292  0.00  0.00    +0.013 A 
ATOM     17  C   UNL     1     -31.867  -7.378  20.035  0.00  0.00    +0.037 A 
ATOM     18  C   UNL     1     -32.097  -8.378  19.071  0.00  0.00    +0.026 A 
BRANCH  17  19
ATOM     19  C   UNL     1     -30.582  -7.344  20.775  0.00  0.00    +0.242 C 
ATOM     20  N   UNL     1     -30.164  -8.437  21.598  0.00  0.00    -0.325 N 
ATOM     21  O   UNL     1     -29.842  -6.327  20.694  0.00  0.00    -0.270 OA
ATOM     22  H   UNL     1     -30.802  -9.230  21.826  0.00  0.00    +0.145 HD
ATOM     23  H   UNL     1     -29.229  -8.411  22.061  0.00  0.00    +0.145 HD
ENDBRANCH  17  19
ENDBRANCH   2  13
TORSDOF 3
ENDMDL
MODEL 8
REMARK VINA RESULT:    -4.307      4.170      7.329
REMARK INTER + INTRA:          -5.521
REMARK INTER:                  -5.063
REMARK INTRA:                  -0.458
REMARK UNBOUND:                -0.459
REMARK  Name = 
REMARK  4 active torsions:
REMARK  status: ('A' for Active; 'I' for Inactive)
REMARK    1  A    between atoms: C_1  and  C_2
REMARK    2  A    between atoms: C_5  and  N_9
REMARK    3  A    between atoms: C_10  and  C_12
REMARK    4  A    between atoms: C_16  and  C_18
REMARK                            x       y       z     vdW  Elec       q    Type
REMARK                         _______ _______ _______ _____ _____    ______ ____
ROOT
ATOM      1  N   UNL     1     -30.696 -12.602  17.571  0.00  0.00    -0.281 N 
ATOM      2  C   UNL     1     -30.157 -11.326  17.964  0.00  0.00    +0.248 C 
ATOM      3  O   UNL     1     -29.392 -10.698  17.180  0.00  0.00    -0.270 OA
ATOM      4  H   UNL     1     -31.215 -13.174  18.274  0.00  0.00    +0.155 HD
ENDROOT
BRANCH   1   9
ATOM      5  C   UNL     1     -29.914 -15.062  12.421  0.00  0.00    +0.045 C 
ATOM      6  C   UNL     1     -30.129 -14.406  13.756  0.00  0.00    -0.032 A 
ATOM      7  C   UNL     1     -29.286 -14.718  14.834  0.00  0.00    +0.006 A 
ATOM      8  C   UNL     1     -29.478 -14.119  16.081  0.00  0.00    +0.023 A 
ATOM      9  C   UNL     1     -30.506 -13.186  16.271  0.00  0.00    +0.035 A 
ATOM     10  C   UNL     1     -31.370 -12.892  15.202  0.00  0.00    +0.043 A 
ATOM     11  C   UNL     1     -31.183 -13.490  13.951  0.00  0.00    +0.046 A 
ATOM     12 CL   UNL     1     -32.297 -13.082  12.650  0.00  0.00    -0.083 Cl
ENDBRANCH   1   9
BRANCH   2  13
ATOM     13  C   UNL     1     -30.474 -10.729  19.284  0.00  0.00    +0.038 A 
ATOM     14  C   UNL     1     -30.765 -11.533  20.399  0.00  0.00    +0.013 A 
ATOM     15  C   UNL     1     -31.053 -10.950  21.634  0.00  0.00    +0.001 A 
ATOM     16  C   UNL     1     -31.053  -9.561  21.776  0.00  0.00    +0.013 A 
ATOM     17  C   UNL     1     -30.763  -8.734  20.677  0.00  0.00    +0.037 A 
ATOM     18  C   UNL     1     -30.461  -9.330  19.437  0.00  0.00    +0.026 A 
BRANCH  17  19
ATOM     19  C   UNL     1     -30.747  -7.257  20.811  0.00  0.00    +0.242 C 
ATOM     20  N   UNL     1     -29.615  -6.567  21.348  0.00  0.00    -0.325 N 
ATOM     21  O   UNL     1     -31.756  -6.588  20.460  0.00  0.00    -0.270 OA
ATOM     22  H   UNL     1     -28.822  -7.075  21.797  0.00  0.00    +0.145 HD
ATOM     23  H   UNL     1     -29.608  -5.523  21.377  0.00  0.00    +0.145 HD
ENDBRANCH  17  19
ENDBRANCH   2  13
TORSDOF 3
ENDMDL
MODEL 9
REMARK VINA RESULT:    -4.185      4.321      4.688
REMARK INTER + INTRA:          -5.378
REMARK INTER:                  -4.923
REMARK INTRA:                  -0.454
REMARK UNBOUND:                -0.459
REMARK  Name = 
REMARK  4 active torsions:
REMARK  status: ('A' for Active; 'I' for Inactive)
REMARK    1  A    between atoms: C_1  and  C_2
REMARK    2  A    between atoms: C_5  and  N_9
REMARK    3  A    between atoms: C_10  and  C_12
REMARK    4  A    between atoms: C_16  and  C_18
REMARK                            x       y       z     vdW  Elec       q    Type
REMARK                         _______ _______ _______ _____ _____    ______ ____
ROOT
ATOM      1  N   UNL     1     -32.053 -10.314  17.531  0.00  0.00    -0.281 N 
ATOM      2  C   UNL     1     -31.339 -10.337  16.281  0.00  0.00    +0.248 C 
ATOM      3  O   UNL     1     -30.555  -9.393  15.986  0.00  0.00    -0.270 OA
ATOM      4  H   UNL     1     -32.797 -11.025  17.707  0.00  0.00    +0.155 HD
ENDROOT
BRANCH   1   9
ATOM      5  C   UNL     1     -31.129  -6.320  21.579  0.00  0.00    +0.045 C 
ATOM      6  C   UNL     1     -31.389  -7.355  20.520  0.00  0.00    -0.032 A 
ATOM      7  C   UNL     1     -30.548  -8.475  20.413  0.00  0.00    +0.006 A 
ATOM      8  C   UNL     1     -30.776  -9.441  19.431  0.00  0.00    +0.023 A 
ATOM      9  C   UNL     1     -31.856  -9.316  18.547  0.00  0.00    +0.035 A 
ATOM     10  C   UNL     1     -32.683  -8.183  18.633  0.00  0.00    +0.043 A 
ATOM     11  C   UNL     1     -32.459  -7.210  19.615  0.00  0.00    +0.046 A 
ATOM     12 CL   UNL     1     -33.529  -5.813  19.673  0.00  0.00    -0.083 Cl
ENDBRANCH   1   9
BRANCH   2  13
ATOM     13  C   UNL     1     -31.510 -11.451  15.317  0.00  0.00    +0.038 A 
ATOM     14  C   UNL     1     -30.596 -12.517  15.263  0.00  0.00    +0.013 A 
ATOM     15  C   UNL     1     -30.781 -13.560  14.354  0.00  0.00    +0.001 A 
ATOM     16  C   UNL     1     -31.878 -13.557  13.490  0.00  0.00    +0.013 A 
ATOM     17  C   UNL     1     -32.809 -12.504  13.526  0.00  0.00    +0.037 A 
ATOM     18  C   UNL     1     -32.621 -11.462  14.454  0.00  0.00    +0.026 A 
BRANCH  17  19
ATOM     19  C   UNL     1     -33.985 -12.489  12.624  0.00  0.00    +0.242 C 
ATOM     20  N   UNL     1     -34.836 -11.344  12.522  0.00  0.00    -0.325 N 
ATOM     21  O   UNL     1     -34.259 -13.511  11.938  0.00  0.00    -0.270 OA
ATOM     22  H   UNL     1     -34.752 -10.536  13.177  0.00  0.00    +0.145 HD
ATOM     23  H   UNL     1     -35.623 -11.340  11.836  0.00  0.00    +0.145 HD
ENDBRANCH  17  19
ENDBRANCH   2  13
TORSDOF 3
ENDMDL
