MODEL 1
REMARK VINA RESULT:    -4.006      0.000      0.000
REMARK INTER + INTRA:          -6.443
REMARK INTER:                  -5.177
REMARK INTRA:                  -1.266
REMARK UNBOUND:                -1.266
REMARK  Name = 
REMARK  10 active torsions:
REMARK  status: ('A' for Active; 'I' for Inactive)
REMARK    1  A    between atoms: C_1  and  C_2
REMARK    2  A    between atoms: C_2  and  C_3
REMARK    3  A    between atoms: C_2  and  N_4
REMARK    4  A    between atoms: N_4  and  C_18
REMARK    5  A    between atoms: C_5  and  C_7
REMARK    6  A    between atoms: C_7  and  C_8
REMARK    7  A    between atoms: C_7  and  S_9
REMARK    8  A    between atoms: S_9  and  C_10
REMARK    9  A    between atoms: C_18  and  C_19
REMARK   10  A    between atoms: C_18  and  C_20
REMARK                            x       y       z     vdW  Elec       q    Type
REMARK                         _______ _______ _______ _____ _____    ______ ____
ROOT
ATOM      1  S   UNL     1     -30.498 -10.466  20.326  0.00  0.00    -0.073 S 
ENDROOT
BRANCH   1   2
ATOM      2  C   UNL     1     -29.064 -11.425  19.848  0.00  0.00    +0.195 A 
ATOM      3  N   UNL     1     -28.129 -10.887  19.024  0.00  0.00    -0.189 NA
ATOM      4  C   UNL     1     -27.040 -11.614  18.665  0.00  0.00    +0.218 A 
ATOM      5  N   UNL     1     -26.057 -11.047  17.803  0.00  0.00    -0.327 N 
ATOM      6  N   UNL     1     -26.890 -12.880  19.130  0.00  0.00    -0.181 NA
ATOM      7  C   UNL     1     -27.826 -13.422  19.950  0.00  0.00    +0.218 A 
ATOM      8  N   UNL     1     -27.667 -14.753  20.437  0.00  0.00    -0.327 N 
ATOM      9  N   UNL     1     -28.914 -12.692  20.307  0.00  0.00    -0.189 NA
ATOM     10  H   UNL     1     -25.217 -11.601  17.523  0.00  0.00    +0.145 HD
ATOM     11  H   UNL     1     -26.166 -10.072  17.444  0.00  0.00    +0.145 HD
ATOM     12  H   UNL     1     -26.832 -15.318  20.166  0.00  0.00    +0.145 HD
ATOM     13  H   UNL     1     -28.382 -15.172  21.070  0.00  0.00    +0.145 HD
ENDBRANCH   1   2
BRANCH   1  14
ATOM     14  C   UNL     1     -31.722 -11.700  19.750  0.00  0.00    +0.137 C 
ATOM     15  C   UNL     1     -33.004 -11.610  20.580  0.00  0.00    +0.029 C 
BRANCH  14  17
ATOM     16  N   UNL     1     -31.200 -12.009  17.240  0.00  0.00    -0.296 N 
ATOM     17  C   UNL     1     -32.021 -11.448  18.292  0.00  0.00    +0.229 C 
ATOM     18  O   UNL     1     -32.988 -10.694  17.992  0.00  0.00    -0.274 OA
BRANCH  16  20
ATOM     19  C   UNL     1     -31.936 -14.414  17.069  0.00  0.00    +0.028 C 
ATOM     20  C   UNL     1     -30.792 -13.434  17.350  0.00  0.00    +0.070 C 
ATOM     21  C   UNL     1     -29.550 -13.750  16.505  0.00  0.00    +0.028 C 
ENDBRANCH  16  20
BRANCH  16  22
ATOM     22  C   UNL     1     -30.920 -11.125  16.078  0.00  0.00    +0.070 C 
ATOM     23  C   UNL     1     -30.481  -9.722  16.515  0.00  0.00    +0.028 C 
ATOM     24  C   UNL     1     -32.060 -11.070  15.056  0.00  0.00    +0.028 C 
ENDBRANCH  16  22
ENDBRANCH  14  17
ENDBRANCH   1  14
TORSDOF 5
ENDMDL
MODEL 2
REMARK VINA RESULT:    -4.006      0.005      1.853
REMARK INTER + INTRA:          -6.443
REMARK INTER:                  -5.176
REMARK INTRA:                  -1.267
REMARK UNBOUND:                -1.266
REMARK  Name = 
REMARK  10 active torsions:
REMARK  status: ('A' for Active; 'I' for Inactive)
REMARK    1  A    between atoms: C_1  and  C_2
REMARK    2  A    between atoms: C_2  and  C_3
REMARK    3  A    between atoms: C_2  and  N_4
REMARK    4  A    between atoms: N_4  and  C_18
REMARK    5  A    between atoms: C_5  and  C_7
REMARK    6  A    between atoms: C_7  and  C_8
REMARK    7  A    between atoms: C_7  and  S_9
REMARK    8  A    between atoms: S_9  and  C_10
REMARK    9  A    between atoms: C_18  and  C_19
REMARK   10  A    between atoms: C_18  and  C_20
REMARK                            x       y       z     vdW  Elec       q    Type
REMARK                         _______ _______ _______ _____ _____    ______ ____
ROOT
ATOM      1  S   UNL     1     -30.502 -10.467  20.324  0.00  0.00    -0.073 S 
ENDROOT
BRANCH   1   2
ATOM      2  C   UNL     1     -29.067 -11.427  19.851  0.00  0.00    +0.195 A 
ATOM      3  N   UNL     1     -28.913 -12.694  20.314  0.00  0.00    -0.189 NA
ATOM      4  C   UNL     1     -27.826 -13.423  19.953  0.00  0.00    +0.218 A 
ATOM      5  N   UNL     1     -27.667 -14.754  20.436  0.00  0.00    -0.327 N 
ATOM      6  N   UNL     1     -26.893 -12.881  19.128  0.00  0.00    -0.181 NA
ATOM      7  C   UNL     1     -27.043 -11.613  18.668  0.00  0.00    +0.218 A 
ATOM      8  N   UNL     1     -26.062 -11.045  17.803  0.00  0.00    -0.327 N 
ATOM      9  N   UNL     1     -28.131 -10.887  19.032  0.00  0.00    -0.189 NA
ATOM     10  H   UNL     1     -26.834 -15.320  20.161  0.00  0.00    +0.145 HD
ATOM     11  H   UNL     1     -28.383 -15.177  21.069  0.00  0.00    +0.145 HD
ATOM     12  H   UNL     1     -25.223 -11.600  17.519  0.00  0.00    +0.145 HD
ATOM     13  H   UNL     1     -26.174 -10.072  17.444  0.00  0.00    +0.145 HD
ENDBRANCH   1   2
BRANCH   1  14
ATOM     14  C   UNL     1     -31.725 -11.702  19.749  0.00  0.00    +0.137 C 
ATOM     15  C   UNL     1     -33.007 -11.612  20.579  0.00  0.00    +0.029 C 
BRANCH  14  17
ATOM     16  N   UNL     1     -31.202 -12.011  17.240  0.00  0.00    -0.296 N 
ATOM     17  C   UNL     1     -32.023 -11.451  18.291  0.00  0.00    +0.229 C 
ATOM     18  O   UNL     1     -32.991 -10.698  17.990  0.00  0.00    -0.274 OA
BRANCH  16  20
ATOM     19  C   UNL     1     -31.934 -14.417  17.068  0.00  0.00    +0.028 C 
ATOM     20  C   UNL     1     -30.791 -13.437  17.351  0.00  0.00    +0.070 C 
ATOM     21  C   UNL     1     -29.548 -13.751  16.507  0.00  0.00    +0.028 C 
ENDBRANCH  16  20
BRANCH  16  22
ATOM     22  C   UNL     1     -30.921 -11.129  16.077  0.00  0.00    +0.070 C 
ATOM     23  C   UNL     1     -30.484  -9.724  16.514  0.00  0.00    +0.028 C 
ATOM     24  C   UNL     1     -32.061 -11.075  15.055  0.00  0.00    +0.028 C 
ENDBRANCH  16  22
ENDBRANCH  14  17
ENDBRANCH   1  14
TORSDOF 5
ENDMDL
MODEL 3
REMARK VINA RESULT:    -3.100      2.335      4.001
REMARK INTER + INTRA:          -5.272
REMARK INTER:                  -5.038
REMARK INTRA:                  -0.234
REMARK UNBOUND:                -1.266
REMARK  Name = 
REMARK  10 active torsions:
REMARK  status: ('A' for Active; 'I' for Inactive)
REMARK    1  A    between atoms: C_1  and  C_2
REMARK    2  A    between atoms: C_2  and  C_3
REMARK    3  A    between atoms: C_2  and  N_4
REMARK    4  A    between atoms: N_4  and  C_18
REMARK    5  A    between atoms: C_5  and  C_7
REMARK    6  A    between atoms: C_7  and  C_8
REMARK    7  A    between atoms: C_7  and  S_9
REMARK    8  A    between atoms: S_9  and  C_10
REMARK    9  A    between atoms: C_18  and  C_19
REMARK   10  A    between atoms: C_18  and  C_20
REMARK                            x       y       z     vdW  Elec       q    Type
REMARK                         _______ _______ _______ _____ _____    ______ ____
ROOT
ATOM      1  S   UNL     1     -28.240 -12.088  19.319  0.00  0.00    -0.073 S 
ENDROOT
BRANCH   1   2
ATOM      2  C   UNL     1     -29.036 -13.127  18.097  0.00  0.00    +0.195 A 
ATOM      3  N   UNL     1     -30.322 -13.524  18.276  0.00  0.00    -0.189 NA
ATOM      4  C   UNL     1     -30.927 -14.309  17.348  0.00  0.00    +0.218 A 
ATOM      5  N   UNL     1     -32.278 -14.722  17.534  0.00  0.00    -0.327 N 
ATOM      6  N   UNL     1     -30.242 -14.697  16.242  0.00  0.00    -0.181 NA
ATOM      7  C   UNL     1     -28.954 -14.304  16.064  0.00  0.00    +0.218 A 
ATOM      8  N   UNL     1     -28.236 -14.713  14.902  0.00  0.00    -0.327 N 
ATOM      9  N   UNL     1     -28.353 -13.520  16.994  0.00  0.00    -0.189 NA
ATOM     10  H   UNL     1     -32.748 -15.326  16.824  0.00  0.00    +0.145 HD
ATOM     11  H   UNL     1     -32.810 -14.425  18.382  0.00  0.00    +0.145 HD
ATOM     12  H   UNL     1     -28.694 -15.316  14.182  0.00  0.00    +0.145 HD
ATOM     13  H   UNL     1     -27.248 -14.411  14.758  0.00  0.00    +0.145 HD
ENDBRANCH   1   2
BRANCH   1  14
ATOM     14  C   UNL     1     -29.798 -11.410  20.001  0.00  0.00    +0.137 C 
ATOM     15  C   UNL     1     -29.606 -10.991  21.459  0.00  0.00    +0.029 C 
BRANCH  14  17
ATOM     16  N   UNL     1     -31.547 -10.138  18.590  0.00  0.00    -0.296 N 
ATOM     17  C   UNL     1     -30.222 -10.227  19.165  0.00  0.00    +0.229 C 
ATOM     18  O   UNL     1     -29.380  -9.315  18.931  0.00  0.00    -0.274 OA
BRANCH  16  20
ATOM     19  C   UNL     1     -32.740 -11.974  19.839  0.00  0.00    +0.028 C 
ATOM     20  C   UNL     1     -32.711 -10.494  19.445  0.00  0.00    +0.070 C 
ATOM     21  C   UNL     1     -32.836  -9.575  20.668  0.00  0.00    +0.028 C 
ENDBRANCH  16  20
BRANCH  16  22
ATOM     22  C   UNL     1     -31.635  -9.596  17.208  0.00  0.00    +0.070 C 
ATOM     23  C   UNL     1     -33.080  -9.269  16.810  0.00  0.00    +0.028 C 
ATOM     24  C   UNL     1     -30.941 -10.469  16.158  0.00  0.00    +0.028 C 
ENDBRANCH  16  22
ENDBRANCH  14  17
ENDBRANCH   1  14
TORSDOF 5
ENDMDL
MODEL 4
REMARK VINA RESULT:    -2.996      1.659      2.811
REMARK INTER + INTRA:          -5.138
REMARK INTER:                  -4.769
REMARK INTRA:                  -0.369
REMARK UNBOUND:                -1.266
REMARK  Name = 
REMARK  10 active torsions:
REMARK  status: ('A' for Active; 'I' for Inactive)
REMARK    1  A    between atoms: C_1  and  C_2
REMARK    2  A    between atoms: C_2  and  C_3
REMARK    3  A    between atoms: C_2  and  N_4
REMARK    4  A    between atoms: N_4  and  C_18
REMARK    5  A    between atoms: C_5  and  C_7
REMARK    6  A    between atoms: C_7  and  C_8
REMARK    7  A    between atoms: C_7  and  S_9
REMARK    8  A    between atoms: S_9  and  C_10
REMARK    9  A    between atoms: C_18  and  C_19
REMARK   10  A    between atoms: C_18  and  C_20
REMARK                            x       y       z     vdW  Elec       q    Type
REMARK                         _______ _______ _______ _____ _____    ______ ____
ROOT
ATOM      1  S   UNL     1     -30.739 -12.811  19.531  0.00  0.00    -0.073 S 
ENDROOT
BRANCH   1   2
ATOM      2  C   UNL     1     -28.949 -12.779  19.508  0.00  0.00    +0.195 A 
ATOM      3  N   UNL     1     -28.295 -11.887  18.721  0.00  0.00    -0.189 NA
ATOM      4  C   UNL     1     -26.938 -11.860  18.706  0.00  0.00    +0.218 A 
ATOM      5  N   UNL     1     -26.251 -10.921  17.884  0.00  0.00    -0.327 N 
ATOM      6  N   UNL     1     -26.236 -12.729  19.479  0.00  0.00    -0.181 NA
ATOM      7  C   UNL     1     -26.889 -13.626  20.262  0.00  0.00    +0.218 A 
ATOM      8  N   UNL     1     -26.152 -14.538  21.073  0.00  0.00    -0.327 N 
ATOM      9  N   UNL     1     -28.247 -13.649  20.274  0.00  0.00    -0.189 NA
ATOM     10  H   UNL     1     -25.207 -10.896  17.868  0.00  0.00    +0.145 HD
ATOM     11  H   UNL     1     -26.785 -10.249  17.289  0.00  0.00    +0.145 HD
ATOM     12  H   UNL     1     -25.107 -14.524  21.068  0.00  0.00    +0.145 HD
ATOM     13  H   UNL     1     -26.649 -15.226  21.680  0.00  0.00    +0.145 HD
ENDBRANCH   1   2
BRANCH   1  14
ATOM     14  C   UNL     1     -30.926 -12.925  17.713  0.00  0.00    +0.137 C 
ATOM     15  C   UNL     1     -30.529 -14.318  17.221  0.00  0.00    +0.029 C 
BRANCH  14  17
ATOM     16  N   UNL     1     -32.789 -11.299  16.972  0.00  0.00    -0.296 N 
ATOM     17  C   UNL     1     -32.360 -12.628  17.350  0.00  0.00    +0.229 C 
ATOM     18  O   UNL     1     -33.210 -13.560  17.421  0.00  0.00    -0.274 OA
BRANCH  16  20
ATOM     19  C   UNL     1     -30.688  -9.938  16.674  0.00  0.00    +0.028 C 
ATOM     20  C   UNL     1     -31.942 -10.529  16.022  0.00  0.00    +0.070 C 
ATOM     21  C   UNL     1     -31.602 -11.335  14.761  0.00  0.00    +0.028 C 
ENDBRANCH  16  20
BRANCH  16  22
ATOM     22  C   UNL     1     -34.108 -10.854  17.495  0.00  0.00    +0.070 C 
ATOM     23  C   UNL     1     -35.010 -10.301  16.384  0.00  0.00    +0.028 C 
ATOM     24  C   UNL     1     -34.007  -9.886  18.678  0.00  0.00    +0.028 C 
ENDBRANCH  16  22
ENDBRANCH  14  17
ENDBRANCH   1  14
TORSDOF 5
ENDMDL
MODEL 5
REMARK VINA RESULT:    -2.962      2.324      3.641
REMARK INTER + INTRA:          -5.094
REMARK INTER:                  -4.894
REMARK INTRA:                  -0.200
REMARK UNBOUND:                -1.266
REMARK  Name = 
REMARK  10 active torsions:
REMARK  status: ('A' for Active; 'I' for Inactive)
REMARK    1  A    between atoms: C_1  and  C_2
REMARK    2  A    between atoms: C_2  and  C_3
REMARK    3  A    between atoms: C_2  and  N_4
REMARK    4  A    between atoms: N_4  and  C_18
REMARK    5  A    between atoms: C_5  and  C_7
REMARK    6  A    between atoms: C_7  and  C_8
REMARK    7  A    between atoms: C_7  and  S_9
REMARK    8  A    between atoms: S_9  and  C_10
REMARK    9  A    between atoms: C_18  and  C_19
REMARK   10  A    between atoms: C_18  and  C_20
REMARK                            x       y       z     vdW  Elec       q    Type
REMARK                         _______ _______ _______ _____ _____    ______ ____
ROOT
ATOM      1  S   UNL     1     -28.257 -11.949  19.186  0.00  0.00    -0.073 S 
ENDROOT
BRANCH   1   2
ATOM      2  C   UNL     1     -29.015 -13.066  18.010  0.00  0.00    +0.195 A 
ATOM      3  N   UNL     1     -28.326 -13.468  16.912  0.00  0.00    -0.189 NA
ATOM      4  C   UNL     1     -28.900 -14.317  16.021  0.00  0.00    +0.218 A 
ATOM      5  N   UNL     1     -28.175 -14.742  14.871  0.00  0.00    -0.327 N 
ATOM      6  N   UNL     1     -30.165 -14.763  16.232  0.00  0.00    -0.181 NA
ATOM      7  C   UNL     1     -30.858 -14.358  17.328  0.00  0.00    +0.218 A 
ATOM      8  N   UNL     1     -32.186 -14.826  17.547  0.00  0.00    -0.327 N 
ATOM      9  N   UNL     1     -30.280 -13.508  18.215  0.00  0.00    -0.189 NA
ATOM     10  H   UNL     1     -28.611 -15.395  14.183  0.00  0.00    +0.145 HD
ATOM     11  H   UNL     1     -27.200 -14.404  14.704  0.00  0.00    +0.145 HD
ATOM     12  H   UNL     1     -32.635 -15.481  16.868  0.00  0.00    +0.145 HD
ATOM     13  H   UNL     1     -32.722 -14.521  18.389  0.00  0.00    +0.145 HD
ENDBRANCH   1   2
BRANCH   1  14
ATOM     14  C   UNL     1     -29.832 -11.434  19.963  0.00  0.00    +0.137 C 
ATOM     15  C   UNL     1     -29.624 -11.138  21.449  0.00  0.00    +0.029 C 
BRANCH  14  17
ATOM     16  N   UNL     1     -31.547 -10.249  18.439  0.00  0.00    -0.296 N 
ATOM     17  C   UNL     1     -30.350 -10.208  19.251  0.00  0.00    +0.229 C 
ATOM     18  O   UNL     1     -29.693  -9.133  19.336  0.00  0.00    -0.274 OA
BRANCH  16  20
ATOM     19  C   UNL     1     -33.607 -10.090  19.884  0.00  0.00    +0.028 C 
ATOM     20  C   UNL     1     -32.737 -10.964  18.975  0.00  0.00    +0.070 C 
ATOM     21  C   UNL     1     -33.561 -11.633  17.867  0.00  0.00    +0.028 C 
ENDBRANCH  16  20
BRANCH  16  22
ATOM     22  C   UNL     1     -31.514  -9.477  17.169  0.00  0.00    +0.070 C 
ATOM     23  C   UNL     1     -32.912  -9.008  16.745  0.00  0.00    +0.028 C 
ATOM     24  C   UNL     1     -30.788 -10.198  16.029  0.00  0.00    +0.028 C 
ENDBRANCH  16  22
ENDBRANCH  14  17
ENDBRANCH   1  14
TORSDOF 5
ENDMDL
MODEL 6
REMARK VINA RESULT:    -2.943      2.772      4.774
REMARK INTER + INTRA:          -5.070
REMARK INTER:                  -4.108
REMARK INTRA:                  -0.962
REMARK UNBOUND:                -1.266
REMARK  Name = 
REMARK  10 active torsions:
REMARK  status: ('A' for Active; 'I' for Inactive)
REMARK    1  A    between atoms: C_1  and  C_2
REMARK    2  A    between atoms: C_2  and  C_3
REMARK    3  A    between atoms: C_2  and  N_4
REMARK    4  A    between atoms: N_4  and  C_18
REMARK    5  A    between atoms: C_5  and  C_7
REMARK    6  A    between atoms: C_7  and  C_8
REMARK    7  A    between atoms: C_7  and  S_9
REMARK    8  A    between atoms: S_9  and  C_10
REMARK    9  A    between atoms: C_18  and  C_19
REMARK   10  A    between atoms: C_18  and  C_20
REMARK                            x       y       z     vdW  Elec       q    Type
REMARK                         _______ _______ _______ _____ _____    ______ ____
ROOT
ATOM      1  S   UNL     1     -29.648 -13.100  20.458  0.00  0.00    -0.073 S 
ENDROOT
BRANCH   1   2
ATOM      2  C   UNL     1     -30.603 -11.668  20.952  0.00  0.00    +0.195 A 
ATOM      3  N   UNL     1     -31.931 -11.791  21.205  0.00  0.00    -0.189 NA
ATOM      4  C   UNL     1     -32.654 -10.706  21.583  0.00  0.00    +0.218 A 
ATOM      5  N   UNL     1     -34.047 -10.836  21.853  0.00  0.00    -0.327 N 
ATOM      6  N   UNL     1     -32.047  -9.498  21.705  0.00  0.00    -0.181 NA
ATOM      7  C   UNL     1     -30.720  -9.372  21.446  0.00  0.00    +0.218 A 
ATOM      8  N   UNL     1     -30.083  -8.103  21.574  0.00  0.00    -0.327 N 
ATOM      9  N   UNL     1     -30.000 -10.459  21.069  0.00  0.00    -0.189 NA
ATOM     10  H   UNL     1     -34.609 -10.005  22.144  0.00  0.00    +0.145 HD
ATOM     11  H   UNL     1     -34.520 -11.763  21.764  0.00  0.00    +0.145 HD
ATOM     12  H   UNL     1     -30.632  -7.263  21.865  0.00  0.00    +0.145 HD
ATOM     13  H   UNL     1     -29.063  -8.001  21.380  0.00  0.00    +0.145 HD
ENDBRANCH   1   2
BRANCH   1  14
ATOM     14  C   UNL     1     -28.636 -12.204  19.222  0.00  0.00    +0.137 C 
ATOM     15  C   UNL     1     -27.153 -12.526  19.410  0.00  0.00    +0.029 C 
BRANCH  14  17
ATOM     16  N   UNL     1     -30.384 -12.219  17.322  0.00  0.00    -0.296 N 
ATOM     17  C   UNL     1     -29.089 -12.604  17.838  0.00  0.00    +0.229 C 
ATOM     18  O   UNL     1     -28.329 -13.330  17.137  0.00  0.00    -0.274 OA
BRANCH  16  20
ATOM     19  C   UNL     1     -30.268  -9.842  16.492  0.00  0.00    +0.028 C 
ATOM     20  C   UNL     1     -30.836 -10.817  17.528  0.00  0.00    +0.070 C 
ATOM     21  C   UNL     1     -32.363 -10.708  17.637  0.00  0.00    +0.028 C 
ENDBRANCH  16  20
BRANCH  16  22
ATOM     22  C   UNL     1     -31.115 -13.246  16.532  0.00  0.00    +0.070 C 
ATOM     23  C   UNL     1     -31.238 -14.574  17.291  0.00  0.00    +0.028 C 
ATOM     24  C   UNL     1     -30.556 -13.449  15.120  0.00  0.00    +0.028 C 
ENDBRANCH  16  22
ENDBRANCH  14  17
ENDBRANCH   1  14
TORSDOF 5
ENDMDL
MODEL 7
REMARK VINA RESULT:    -2.751      1.816      3.819
REMARK INTER + INTRA:          -4.822
REMARK INTER:                  -4.083
REMARK INTRA:                  -0.739
REMARK UNBOUND:                -1.266
REMARK  Name = 
REMARK  10 active torsions:
REMARK  status: ('A' for Active; 'I' for Inactive)
REMARK    1  A    between atoms: C_1  and  C_2
REMARK    2  A    between atoms: C_2  and  C_3
REMARK    3  A    between atoms: C_2  and  N_4
REMARK    4  A    between atoms: N_4  and  C_18
REMARK    5  A    between atoms: C_5  and  C_7
REMARK    6  A    between atoms: C_7  and  C_8
REMARK    7  A    between atoms: C_7  and  S_9
REMARK    8  A    between atoms: S_9  and  C_10
REMARK    9  A    between atoms: C_18  and  C_19
REMARK   10  A    between atoms: C_18  and  C_20
REMARK                            x       y       z     vdW  Elec       q    Type
REMARK                         _______ _______ _______ _____ _____    ______ ____
ROOT
ATOM      1  S   UNL     1     -30.321 -14.142  17.192  0.00  0.00    -0.073 S 
ENDROOT
BRANCH   1   2
ATOM      2  C   UNL     1     -29.186 -13.248  18.250  0.00  0.00    +0.195 A 
ATOM      3  N   UNL     1     -29.277 -13.366  19.598  0.00  0.00    -0.189 NA
ATOM      4  C   UNL     1     -28.414 -12.690  20.400  0.00  0.00    +0.218 A 
ATOM      5  N   UNL     1     -28.507 -12.818  21.816  0.00  0.00    -0.327 N 
ATOM      6  N   UNL     1     -27.461 -11.896  19.849  0.00  0.00    -0.181 NA
ATOM      7  C   UNL     1     -27.372 -11.773  18.499  0.00  0.00    +0.218 A 
ATOM      8  N   UNL     1     -26.371 -10.937  17.922  0.00  0.00    -0.327 N 
ATOM      9  N   UNL     1     -28.237 -12.450  17.702  0.00  0.00    -0.189 NA
ATOM     10  H   UNL     1     -27.846 -12.301  22.438  0.00  0.00    +0.145 HD
ATOM     11  H   UNL     1     -29.237 -13.429  22.246  0.00  0.00    +0.145 HD
ATOM     12  H   UNL     1     -25.703 -10.415  18.532  0.00  0.00    +0.145 HD
ATOM     13  H   UNL     1     -26.296 -10.842  16.886  0.00  0.00    +0.145 HD
ENDBRANCH   1   2
BRANCH   1  14
ATOM     14  C   UNL     1     -31.192 -12.650  16.586  0.00  0.00    +0.137 C 
ATOM     15  C   UNL     1     -32.017 -12.981  15.341  0.00  0.00    +0.029 C 
BRANCH  14  17
ATOM     16  N   UNL     1     -31.890 -10.813  18.261  0.00  0.00    -0.296 N 
ATOM     17  C   UNL     1     -32.085 -12.126  17.684  0.00  0.00    +0.229 C 
ATOM     18  O   UNL     1     -32.996 -12.875  18.136  0.00  0.00    -0.274 OA
BRANCH  16  20
ATOM     19  C   UNL     1     -30.277  -9.762  16.633  0.00  0.00    +0.028 C 
ATOM     20  C   UNL     1     -31.633  -9.672  17.342  0.00  0.00    +0.070 C 
ATOM     21  C   UNL     1     -32.783  -9.454  16.348  0.00  0.00    +0.028 C 
ENDBRANCH  16  20
BRANCH  16  22
ATOM     22  C   UNL     1     -32.068 -10.702  19.733  0.00  0.00    +0.070 C 
ATOM     23  C   UNL     1     -33.458 -10.169  20.105  0.00  0.00    +0.028 C 
ATOM     24  C   UNL     1     -30.955  -9.915  20.430  0.00  0.00    +0.028 C 
ENDBRANCH  16  22
ENDBRANCH  14  17
ENDBRANCH   1  14
TORSDOF 5
ENDMDL
MODEL 8
REMARK VINA RESULT:    -2.682      3.014      5.520
REMARK INTER + INTRA:          -4.732
REMARK INTER:                  -3.499
REMARK INTRA:                  -1.233
REMARK UNBOUND:                -1.266
REMARK  Name = 
REMARK  10 active torsions:
REMARK  status: ('A' for Active; 'I' for Inactive)
REMARK    1  A    between atoms: C_1  and  C_2
REMARK    2  A    between atoms: C_2  and  C_3
REMARK    3  A    between atoms: C_2  and  N_4
REMARK    4  A    between atoms: N_4  and  C_18
REMARK    5  A    between atoms: C_5  and  C_7
REMARK    6  A    between atoms: C_7  and  C_8
REMARK    7  A    between atoms: C_7  and  S_9
REMARK    8  A    between atoms: S_9  and  C_10
REMARK    9  A    between atoms: C_18  and  C_19
REMARK   10  A    between atoms: C_18  and  C_20
REMARK                            x       y       z     vdW  Elec       q    Type
REMARK                         _______ _______ _______ _____ _____    ______ ____
ROOT
ATOM      1  S   UNL     1     -33.178 -11.197  20.815  0.00  0.00    -0.073 S 
ENDROOT
BRANCH   1   2
ATOM      2  C   UNL     1     -33.539 -10.076  19.467  0.00  0.00    +0.195 A 
ATOM      3  N   UNL     1     -34.146 -10.536  18.344  0.00  0.00    -0.189 NA
ATOM      4  C   UNL     1     -34.422  -9.685  17.322  0.00  0.00    +0.218 A 
ATOM      5  N   UNL     1     -35.062 -10.167  16.144  0.00  0.00    -0.327 N 
ATOM      6  N   UNL     1     -34.088  -8.373  17.427  0.00  0.00    -0.181 NA
ATOM      7  C   UNL     1     -33.476  -7.912  18.549  0.00  0.00    +0.218 A 
ATOM      8  N   UNL     1     -33.126  -6.534  18.657  0.00  0.00    -0.327 N 
ATOM      9  N   UNL     1     -33.202  -8.766  19.567  0.00  0.00    -0.189 NA
ATOM     10  H   UNL     1     -35.277  -9.517  15.356  0.00  0.00    +0.145 HD
ATOM     11  H   UNL     1     -35.324 -11.175  16.059  0.00  0.00    +0.145 HD
ATOM     12  H   UNL     1     -33.336  -5.872  17.876  0.00  0.00    +0.145 HD
ATOM     13  H   UNL     1     -32.659  -6.174  19.518  0.00  0.00    +0.145 HD
ENDBRANCH   1   2
BRANCH   1  14
ATOM     14  C   UNL     1     -31.359 -11.042  20.677  0.00  0.00    +0.137 C 
ATOM     15  C   UNL     1     -30.702 -11.215  22.048  0.00  0.00    +0.029 C 
BRANCH  14  17
ATOM     16  N   UNL     1     -30.641 -11.794  18.314  0.00  0.00    -0.296 N 
ATOM     17  C   UNL     1     -30.852 -12.089  19.715  0.00  0.00    +0.229 C 
ATOM     18  O   UNL     1     -30.650 -13.260  20.143  0.00  0.00    -0.274 OA
BRANCH  16  20
ATOM     19  C   UNL     1     -28.432 -10.648  17.913  0.00  0.00    +0.028 C 
ATOM     20  C   UNL     1     -29.958 -10.522  17.958  0.00  0.00    +0.070 C 
ATOM     21  C   UNL     1     -30.517  -9.903  16.668  0.00  0.00    +0.028 C 
ENDBRANCH  16  20
BRANCH  16  22
ATOM     22  C   UNL     1     -31.039 -12.851  17.347  0.00  0.00    +0.070 C 
ATOM     23  C   UNL     1     -32.491 -13.303  17.557  0.00  0.00    +0.028 C 
ATOM     24  C   UNL     1     -30.077 -14.042  17.304  0.00  0.00    +0.028 C 
ENDBRANCH  16  22
ENDBRANCH  14  17
ENDBRANCH   1  14
TORSDOF 5
ENDMDL
MODEL 9
REMARK VINA RESULT:    -2.672      3.001      5.388
REMARK INTER + INTRA:          -4.719
REMARK INTER:                  -3.436
REMARK INTRA:                  -1.283
REMARK UNBOUND:                -1.266
REMARK  Name = 
REMARK  10 active torsions:
REMARK  status: ('A' for Active; 'I' for Inactive)
REMARK    1  A    between atoms: C_1  and  C_2
REMARK    2  A    between atoms: C_2  and  C_3
REMARK    3  A    between atoms: C_2  and  N_4
REMARK    4  A    between atoms: N_4  and  C_18
REMARK    5  A    between atoms: C_5  and  C_7
REMARK    6  A    between atoms: C_7  and  C_8
REMARK    7  A    between atoms: C_7  and  S_9
REMARK    8  A    between atoms: S_9  and  C_10
REMARK    9  A    between atoms: C_18  and  C_19
REMARK   10  A    between atoms: C_18  and  C_20
REMARK                            x       y       z     vdW  Elec       q    Type
REMARK                         _______ _______ _______ _____ _____    ______ ____
ROOT
ATOM      1  S   UNL     1     -33.190 -11.285  20.719  0.00  0.00    -0.073 S 
ENDROOT
BRANCH   1   2
ATOM      2  C   UNL     1     -33.559 -10.122  19.407  0.00  0.00    +0.195 A 
ATOM      3  N   UNL     1     -33.241  -8.811  19.552  0.00  0.00    -0.189 NA
ATOM      4  C   UNL     1     -33.518  -7.930  18.556  0.00  0.00    +0.218 A 
ATOM      5  N   UNL     1     -33.181  -6.554  18.706  0.00  0.00    -0.327 N 
ATOM      6  N   UNL     1     -34.114  -8.365  17.416  0.00  0.00    -0.181 NA
ATOM      7  C   UNL     1     -34.436  -9.676  17.272  0.00  0.00    +0.218 A 
ATOM      8  N   UNL     1     -35.062 -10.131  16.074  0.00  0.00    -0.327 N 
ATOM      9  N   UNL     1     -34.158 -10.553  18.270  0.00  0.00    -0.189 NA
ATOM     10  H   UNL     1     -33.391  -5.872  17.944  0.00  0.00    +0.145 HD
ATOM     11  H   UNL     1     -32.720  -6.214  19.580  0.00  0.00    +0.145 HD
ATOM     12  H   UNL     1     -35.278  -9.460  15.303  0.00  0.00    +0.145 HD
ATOM     13  H   UNL     1     -35.309 -11.138  15.957  0.00  0.00    +0.145 HD
ENDBRANCH   1   2
BRANCH   1  14
ATOM     14  C   UNL     1     -31.372 -11.111  20.587  0.00  0.00    +0.137 C 
ATOM     15  C   UNL     1     -30.714 -11.337  21.950  0.00  0.00    +0.029 C 
BRANCH  14  17
ATOM     16  N   UNL     1     -30.672 -11.765  18.190  0.00  0.00    -0.296 N 
ATOM     17  C   UNL     1     -30.858 -12.113  19.582  0.00  0.00    +0.229 C 
ATOM     18  O   UNL     1     -30.626 -13.293  19.965  0.00  0.00    -0.274 OA
BRANCH  16  20
ATOM     19  C   UNL     1     -28.491 -10.528  17.931  0.00  0.00    +0.028 C 
ATOM     20  C   UNL     1     -30.021 -10.467  17.869  0.00  0.00    +0.070 C 
ATOM     21  C   UNL     1     -30.515  -9.881  16.539  0.00  0.00    +0.028 C 
ENDBRANCH  16  20
BRANCH  16  22
ATOM     22  C   UNL     1     -31.064 -12.796  17.192  0.00  0.00    +0.070 C 
ATOM     23  C   UNL     1     -32.436 -13.407  17.505  0.00  0.00    +0.028 C 
ATOM     24  C   UNL     1     -30.000 -13.875  16.972  0.00  0.00    +0.028 C 
ENDBRANCH  16  22
ENDBRANCH  14  17
ENDBRANCH   1  14
TORSDOF 5
ENDMDL
