MODEL 1
REMARK VINA RESULT:    -5.399      0.000      0.000
REMARK INTER + INTRA:          -7.170
REMARK INTER:                  -6.662
REMARK INTRA:                  -0.509
REMARK UNBOUND:                -0.509
REMARK  Name = 
REMARK  5 active torsions:
REMARK  status: ('A' for Active; 'I' for Inactive)
REMARK    1  A    between atoms: C_1  and  O_2
REMARK    2  A    between atoms: O_2  and  C_3
REMARK    3  A    between atoms: C_8  and  N_9
REMARK    4  A    between atoms: N_9  and  C_10
REMARK    5  A    between atoms: C_12  and  C_13
REMARK                            x       y       z     vdW  Elec       q    Type
REMARK                         _______ _______ _______ _____ _____    ______ ____
ROOT
ATOM      1  C   UNL     1     -32.884 -12.451  15.954  0.00  0.00    +0.124 A 
ATOM      2  C   UNL     1     -32.086 -12.508  17.102  0.00  0.00    +0.053 A 
ATOM      3  C   UNL     1     -30.810 -13.088  17.048  0.00  0.00    -0.005 A 
ATOM      4  C   UNL     1     -30.348 -13.628  15.822  0.00  0.00    +0.008 A 
ATOM      5  C   UNL     1     -29.103 -14.279  15.697  0.00  0.00    +0.010 A 
ATOM      6  C   UNL     1     -28.694 -14.790  14.463  0.00  0.00    +0.001 A 
ATOM      7  C   UNL     1     -29.518 -14.669  13.342  0.00  0.00    +0.002 A 
ATOM      8  C   UNL     1     -30.761 -14.044  13.452  0.00  0.00    +0.028 A 
ATOM      9  C   UNL     1     -31.184 -13.531  14.683  0.00  0.00    +0.074 A 
ATOM     10  N   UNL     1     -32.407 -12.949  14.781  0.00  0.00    -0.232 NA
ENDROOT
BRANCH   3  11
ATOM     11  C   UNL     1     -29.988 -13.090  18.279  0.00  0.00    -0.017 A 
ATOM     12  C   UNL     1     -30.542 -13.496  19.505  0.00  0.00    +0.010 A 
ATOM     13  C   UNL     1     -29.756 -13.516  20.661  0.00  0.00    +0.020 A 
ATOM     14  C   UNL     1     -28.410 -13.141  20.600  0.00  0.00    +0.041 A 
ATOM     15 CL   UNL     1     -27.425 -13.167  22.051  0.00  0.00    -0.084 Cl
ATOM     16  C   UNL     1     -27.848 -12.748  19.381  0.00  0.00    +0.020 A 
ATOM     17  C   UNL     1     -28.633 -12.727  18.223  0.00  0.00    +0.010 A 
ENDBRANCH   3  11
BRANCH   1  18
ATOM     18  N   UNL     1     -34.176 -11.824  16.008  0.00  0.00    -0.297 N 
ATOM     19  H   UNL     1     -34.921 -12.282  16.581  0.00  0.00    +0.154 HD
BRANCH  18  25
ATOM     20  C   UNL     1     -34.791 -10.497  14.026  0.00  0.00    +0.141 A 
ATOM     21  C   UNL     1     -35.054  -9.247  13.429  0.00  0.00    +0.047 A 
ATOM     22  C   UNL     1     -34.989  -8.075  14.186  0.00  0.00    +0.004 A 
ATOM     23  C   UNL     1     -34.656  -8.134  15.539  0.00  0.00    +0.002 A 
ATOM     24  C   UNL     1     -34.391  -9.365  16.142  0.00  0.00    +0.027 A 
ATOM     25  C   UNL     1     -34.472 -10.556  15.398  0.00  0.00    +0.075 A 
BRANCH  20  27
ATOM     26  C   UNL     1     -34.174 -11.921  12.060  0.00  0.00    +0.277 C 
ATOM     27  O   UNL     1     -34.849 -11.694  13.294  0.00  0.00    -0.493 OA
ENDBRANCH  20  27
ENDBRANCH  18  25
ENDBRANCH   1  18
TORSDOF 4
ENDMDL
MODEL 2
REMARK VINA RESULT:    -5.367      1.139      2.192
REMARK INTER + INTRA:          -7.130
REMARK INTER:                  -6.699
REMARK INTRA:                  -0.431
REMARK UNBOUND:                -0.509
REMARK  Name = 
REMARK  5 active torsions:
REMARK  status: ('A' for Active; 'I' for Inactive)
REMARK    1  A    between atoms: C_1  and  O_2
REMARK    2  A    between atoms: O_2  and  C_3
REMARK    3  A    between atoms: C_8  and  N_9
REMARK    4  A    between atoms: N_9  and  C_10
REMARK    5  A    between atoms: C_12  and  C_13
REMARK                            x       y       z     vdW  Elec       q    Type
REMARK                         _______ _______ _______ _____ _____    ______ ____
ROOT
ATOM      1  C   UNL     1     -32.917 -12.405  15.918  0.00  0.00    +0.124 A 
ATOM      2  C   UNL     1     -32.125 -12.495  17.068  0.00  0.00    +0.053 A 
ATOM      3  C   UNL     1     -30.860 -13.098  17.011  0.00  0.00    -0.005 A 
ATOM      4  C   UNL     1     -30.404 -13.629  15.779  0.00  0.00    +0.008 A 
ATOM      5  C   UNL     1     -29.171 -14.302  15.649  0.00  0.00    +0.010 A 
ATOM      6  C   UNL     1     -28.766 -14.802  14.408  0.00  0.00    +0.001 A 
ATOM      7  C   UNL     1     -29.583 -14.648  13.287  0.00  0.00    +0.002 A 
ATOM      8  C   UNL     1     -30.815 -14.001  13.400  0.00  0.00    +0.028 A 
ATOM      9  C   UNL     1     -31.233 -13.499  14.638  0.00  0.00    +0.074 A 
ATOM     10  N   UNL     1     -32.445 -12.894  14.740  0.00  0.00    -0.232 NA
ENDROOT
BRANCH   3  11
ATOM     11  C   UNL     1     -30.044 -13.135  18.245  0.00  0.00    -0.017 A 
ATOM     12  C   UNL     1     -28.657 -12.914  18.188  0.00  0.00    +0.010 A 
ATOM     13  C   UNL     1     -27.893 -12.928  19.359  0.00  0.00    +0.020 A 
ATOM     14  C   UNL     1     -28.508 -13.154  20.595  0.00  0.00    +0.041 A 
ATOM     15 CL   UNL     1     -27.548 -13.171  22.062  0.00  0.00    -0.084 Cl
ATOM     16  C   UNL     1     -29.890 -13.361  20.660  0.00  0.00    +0.020 A 
ATOM     17  C   UNL     1     -30.656 -13.347  19.490  0.00  0.00    +0.010 A 
ENDBRANCH   3  11
BRANCH   1  18
ATOM     18  N   UNL     1     -34.197 -11.754  15.977  0.00  0.00    -0.297 N 
ATOM     19  H   UNL     1     -34.981 -12.253  16.456  0.00  0.00    +0.154 HD
BRANCH  18  25
ATOM     20  C   UNL     1     -34.349  -9.330  16.391  0.00  0.00    +0.141 A 
ATOM     21  C   UNL     1     -34.610  -8.027  15.921  0.00  0.00    +0.047 A 
ATOM     22  C   UNL     1     -34.961  -7.815  14.586  0.00  0.00    +0.004 A 
ATOM     23  C   UNL     1     -35.062  -8.895  13.709  0.00  0.00    +0.002 A 
ATOM     24  C   UNL     1     -34.808 -10.190  14.162  0.00  0.00    +0.027 A 
ATOM     25  C   UNL     1     -34.434 -10.418  15.499  0.00  0.00    +0.075 A 
BRANCH  20  27
ATOM     26  C   UNL     1     -33.100  -8.772  18.488  0.00  0.00    +0.277 C 
ATOM     27  O   UNL     1     -33.993  -9.578  17.727  0.00  0.00    -0.493 OA
ENDBRANCH  20  27
ENDBRANCH  18  25
ENDBRANCH   1  18
TORSDOF 4
ENDMDL
MODEL 3
REMARK VINA RESULT:    -5.176      2.967      4.935
REMARK INTER + INTRA:          -6.895
REMARK INTER:                  -6.145
REMARK INTRA:                  -0.750
REMARK UNBOUND:                -0.509
REMARK  Name = 
REMARK  5 active torsions:
REMARK  status: ('A' for Active; 'I' for Inactive)
REMARK    1  A    between atoms: C_1  and  O_2
REMARK    2  A    between atoms: O_2  and  C_3
REMARK    3  A    between atoms: C_8  and  N_9
REMARK    4  A    between atoms: N_9  and  C_10
REMARK    5  A    between atoms: C_12  and  C_13
REMARK                            x       y       z     vdW  Elec       q    Type
REMARK                         _______ _______ _______ _____ _____    ______ ____
ROOT
ATOM      1  C   UNL     1     -30.737  -9.831  17.110  0.00  0.00    +0.124 A 
ATOM      2  C   UNL     1     -29.866 -10.766  17.681  0.00  0.00    +0.053 A 
ATOM      3  C   UNL     1     -29.677 -10.801  19.070  0.00  0.00    -0.005 A 
ATOM      4  C   UNL     1     -30.365  -9.868  19.884  0.00  0.00    +0.008 A 
ATOM      5  C   UNL     1     -30.186  -9.798  21.281  0.00  0.00    +0.010 A 
ATOM      6  C   UNL     1     -30.895  -8.861  22.039  0.00  0.00    +0.001 A 
ATOM      7  C   UNL     1     -31.780  -7.978  21.417  0.00  0.00    +0.002 A 
ATOM      8  C   UNL     1     -31.955  -8.020  20.033  0.00  0.00    +0.028 A 
ATOM      9  C   UNL     1     -31.249  -8.952  19.263  0.00  0.00    +0.074 A 
ATOM     10  N   UNL     1     -31.410  -8.965  17.915  0.00  0.00    -0.232 NA
ENDROOT
BRANCH   3  11
ATOM     11  C   UNL     1     -28.775 -11.833  19.630  0.00  0.00    -0.017 A 
ATOM     12  C   UNL     1     -29.227 -12.702  20.638  0.00  0.00    +0.010 A 
ATOM     13  C   UNL     1     -28.379 -13.689  21.148  0.00  0.00    +0.020 A 
ATOM     14  C   UNL     1     -27.078 -13.823  20.651  0.00  0.00    +0.041 A 
ATOM     15 CL   UNL     1     -26.016 -15.062  21.292  0.00  0.00    -0.084 Cl
ATOM     16  C   UNL     1     -26.627 -12.970  19.638  0.00  0.00    +0.020 A 
ATOM     17  C   UNL     1     -27.473 -11.981  19.126  0.00  0.00    +0.010 A 
ENDBRANCH   3  11
BRANCH   1  18
ATOM     18  N   UNL     1     -30.952  -9.825  15.690  0.00  0.00    -0.297 N 
ATOM     19  H   UNL     1     -30.270  -9.306  15.091  0.00  0.00    +0.154 HD
BRANCH  18  25
ATOM     20  C   UNL     1     -33.312 -10.060  15.019  0.00  0.00    +0.141 A 
ATOM     21  C   UNL     1     -34.335 -10.808  14.402  0.00  0.00    +0.047 A 
ATOM     22  C   UNL     1     -34.054 -12.049  13.827  0.00  0.00    +0.004 A 
ATOM     23  C   UNL     1     -32.757 -12.560  13.864  0.00  0.00    +0.002 A 
ATOM     24  C   UNL     1     -31.735 -11.830  14.473  0.00  0.00    +0.027 A 
ATOM     25  C   UNL     1     -31.997 -10.569  15.039  0.00  0.00    +0.075 A 
BRANCH  20  27
ATOM     26  C   UNL     1     -34.688  -8.507  16.421  0.00  0.00    +0.277 C 
ATOM     27  O   UNL     1     -33.560  -8.808  15.606  0.00  0.00    -0.493 OA
ENDBRANCH  20  27
ENDBRANCH  18  25
ENDBRANCH   1  18
TORSDOF 4
ENDMDL
MODEL 4
REMARK VINA RESULT:    -5.124      2.399      4.666
REMARK INTER + INTRA:          -6.831
REMARK INTER:                  -5.703
REMARK INTRA:                  -1.127
REMARK UNBOUND:                -0.509
REMARK  Name = 
REMARK  5 active torsions:
REMARK  status: ('A' for Active; 'I' for Inactive)
REMARK    1  A    between atoms: C_1  and  O_2
REMARK    2  A    between atoms: O_2  and  C_3
REMARK    3  A    between atoms: C_8  and  N_9
REMARK    4  A    between atoms: N_9  and  C_10
REMARK    5  A    between atoms: C_12  and  C_13
REMARK                            x       y       z     vdW  Elec       q    Type
REMARK                         _______ _______ _______ _____ _____    ______ ____
ROOT
ATOM      1  C   UNL     1     -31.806 -12.463  17.230  0.00  0.00    +0.124 A 
ATOM      2  C   UNL     1     -30.710 -12.944  17.955  0.00  0.00    +0.053 A 
ATOM      3  C   UNL     1     -30.105 -12.146  18.937  0.00  0.00    -0.005 A 
ATOM      4  C   UNL     1     -30.609 -10.843  19.173  0.00  0.00    +0.008 A 
ATOM      5  C   UNL     1     -30.023  -9.956  20.100  0.00  0.00    +0.010 A 
ATOM      6  C   UNL     1     -30.563  -8.681  20.298  0.00  0.00    +0.001 A 
ATOM      7  C   UNL     1     -31.682  -8.271  19.572  0.00  0.00    +0.002 A 
ATOM      8  C   UNL     1     -32.264  -9.129  18.636  0.00  0.00    +0.028 A 
ATOM      9  C   UNL     1     -31.731 -10.406  18.427  0.00  0.00    +0.074 A 
ATOM     10  N   UNL     1     -32.291 -11.220  17.495  0.00  0.00    -0.232 NA
ENDROOT
BRANCH   3  11
ATOM     11  C   UNL     1     -28.974 -12.713  19.705  0.00  0.00    -0.017 A 
ATOM     12  C   UNL     1     -29.205 -13.418  20.898  0.00  0.00    +0.010 A 
ATOM     13  C   UNL     1     -28.135 -13.971  21.608  0.00  0.00    +0.020 A 
ATOM     14  C   UNL     1     -26.828 -13.831  21.129  0.00  0.00    +0.041 A 
ATOM     15 CL   UNL     1     -25.487 -14.525  22.020  0.00  0.00    -0.084 Cl
ATOM     16  C   UNL     1     -26.592 -13.141  19.935  0.00  0.00    +0.020 A 
ATOM     17  C   UNL     1     -27.661 -12.588  19.222  0.00  0.00    +0.010 A 
ENDBRANCH   3  11
BRANCH   1  18
ATOM     18  N   UNL     1     -32.441 -13.300  16.251  0.00  0.00    -0.297 N 
ATOM     19  H   UNL     1     -33.119 -14.023  16.587  0.00  0.00    +0.154 HD
BRANCH  18  25
ATOM     20  C   UNL     1     -31.248 -13.843  14.165  0.00  0.00    +0.141 A 
ATOM     21  C   UNL     1     -31.070 -13.657  12.779  0.00  0.00    +0.047 A 
ATOM     22  C   UNL     1     -31.890 -12.775  12.073  0.00  0.00    +0.004 A 
ATOM     23  C   UNL     1     -32.890 -12.065  12.738  0.00  0.00    +0.002 A 
ATOM     24  C   UNL     1     -33.076 -12.238  14.110  0.00  0.00    +0.027 A 
ATOM     25  C   UNL     1     -32.270 -13.138  14.832  0.00  0.00    +0.075 A 
BRANCH  20  27
ATOM     26  C   UNL     1     -29.017 -14.738  14.868  0.00  0.00    +0.277 C 
ATOM     27  O   UNL     1     -30.440 -14.723  14.904  0.00  0.00    -0.493 OA
ENDBRANCH  20  27
ENDBRANCH  18  25
ENDBRANCH   1  18
TORSDOF 4
ENDMDL
MODEL 5
REMARK VINA RESULT:    -5.084      2.938      4.820
REMARK INTER + INTRA:          -6.782
REMARK INTER:                  -6.030
REMARK INTRA:                  -0.752
REMARK UNBOUND:                -0.509
REMARK  Name = 
REMARK  5 active torsions:
REMARK  status: ('A' for Active; 'I' for Inactive)
REMARK    1  A    between atoms: C_1  and  O_2
REMARK    2  A    between atoms: O_2  and  C_3
REMARK    3  A    between atoms: C_8  and  N_9
REMARK    4  A    between atoms: N_9  and  C_10
REMARK    5  A    between atoms: C_12  and  C_13
REMARK                            x       y       z     vdW  Elec       q    Type
REMARK                         _______ _______ _______ _____ _____    ______ ____
ROOT
ATOM      1  C   UNL     1     -30.736  -9.995  16.969  0.00  0.00    +0.124 A 
ATOM      2  C   UNL     1     -29.883 -10.911  17.595  0.00  0.00    +0.053 A 
ATOM      3  C   UNL     1     -29.696 -10.869  18.984  0.00  0.00    -0.005 A 
ATOM      4  C   UNL     1     -30.367  -9.878  19.741  0.00  0.00    +0.008 A 
ATOM      5  C   UNL     1     -30.189  -9.731  21.132  0.00  0.00    +0.010 A 
ATOM      6  C   UNL     1     -30.881  -8.738  21.833  0.00  0.00    +0.001 A 
ATOM      7  C   UNL     1     -31.749  -7.877  21.159  0.00  0.00    +0.002 A 
ATOM      8  C   UNL     1     -31.923  -7.996  19.779  0.00  0.00    +0.028 A 
ATOM      9  C   UNL     1     -31.234  -8.983  19.066  0.00  0.00    +0.074 A 
ATOM     10  N   UNL     1     -31.394  -9.071  17.720  0.00  0.00    -0.232 NA
ENDROOT
BRANCH   3  11
ATOM     11  C   UNL     1     -28.815 -11.884  19.604  0.00  0.00    -0.017 A 
ATOM     12  C   UNL     1     -29.300 -12.722  20.623  0.00  0.00    +0.010 A 
ATOM     13  C   UNL     1     -28.471 -13.693  21.191  0.00  0.00    +0.020 A 
ATOM     14  C   UNL     1     -27.155 -13.842  20.741  0.00  0.00    +0.041 A 
ATOM     15 CL   UNL     1     -26.115 -15.061  21.455  0.00  0.00    -0.084 Cl
ATOM     16  C   UNL     1     -26.669 -13.020  19.719  0.00  0.00    +0.020 A 
ATOM     17  C   UNL     1     -27.497 -12.047  19.149  0.00  0.00    +0.010 A 
ENDBRANCH   3  11
BRANCH   1  18
ATOM     18  N   UNL     1     -30.950 -10.067  15.550  0.00  0.00    -0.297 N 
ATOM     19  H   UNL     1     -30.218  -9.663  14.921  0.00  0.00    +0.154 HD
BRANCH  18  25
ATOM     20  C   UNL     1     -31.882 -12.024  14.379  0.00  0.00    +0.141 A 
ATOM     21  C   UNL     1     -32.973 -12.671  13.764  0.00  0.00    +0.047 A 
ATOM     22  C   UNL     1     -34.222 -12.049  13.706  0.00  0.00    +0.004 A 
ATOM     23  C   UNL     1     -34.396 -10.777  14.251  0.00  0.00    +0.002 A 
ATOM     24  C   UNL     1     -33.323 -10.125  14.861  0.00  0.00    +0.027 A 
ATOM     25  C   UNL     1     -32.064 -10.746  14.946  0.00  0.00    +0.075 A 
BRANCH  20  27
ATOM     26  C   UNL     1     -30.384 -14.000  14.732  0.00  0.00    +0.277 C 
ATOM     27  O   UNL     1     -30.613 -12.622  14.455  0.00  0.00    -0.493 OA
ENDBRANCH  20  27
ENDBRANCH  18  25
ENDBRANCH   1  18
TORSDOF 4
ENDMDL
MODEL 6
REMARK VINA RESULT:    -5.073      2.184      4.378
REMARK INTER + INTRA:          -6.767
REMARK INTER:                  -5.629
REMARK INTRA:                  -1.138
REMARK UNBOUND:                -0.509
REMARK  Name = 
REMARK  5 active torsions:
REMARK  status: ('A' for Active; 'I' for Inactive)
REMARK    1  A    between atoms: C_1  and  O_2
REMARK    2  A    between atoms: O_2  and  C_3
REMARK    3  A    between atoms: C_8  and  N_9
REMARK    4  A    between atoms: N_9  and  C_10
REMARK    5  A    between atoms: C_12  and  C_13
REMARK                            x       y       z     vdW  Elec       q    Type
REMARK                         _______ _______ _______ _____ _____    ______ ____
ROOT
ATOM      1  C   UNL     1     -32.132 -12.102  17.157  0.00  0.00    +0.124 A 
ATOM      2  C   UNL     1     -31.028 -12.623  17.841  0.00  0.00    +0.053 A 
ATOM      3  C   UNL     1     -30.373 -11.856  18.815  0.00  0.00    -0.005 A 
ATOM      4  C   UNL     1     -30.833 -10.543  19.084  0.00  0.00    +0.008 A 
ATOM      5  C   UNL     1     -30.195  -9.687  20.005  0.00  0.00    +0.010 A 
ATOM      6  C   UNL     1     -30.693  -8.401  20.237  0.00  0.00    +0.001 A 
ATOM      7  C   UNL     1     -31.823  -7.950  19.551  0.00  0.00    +0.002 A 
ATOM      8  C   UNL     1     -32.455  -8.777  18.622  0.00  0.00    +0.028 A 
ATOM      9  C   UNL     1     -31.964 -10.065  18.378  0.00  0.00    +0.074 A 
ATOM     10  N   UNL     1     -32.574 -10.850  17.453  0.00  0.00    -0.232 NA
ENDROOT
BRANCH   3  11
ATOM     11  C   UNL     1     -29.235 -12.465  19.540  0.00  0.00    -0.017 A 
ATOM     12  C   UNL     1     -29.450 -13.184  20.728  0.00  0.00    +0.010 A 
ATOM     13  C   UNL     1     -28.374 -13.776  21.397  0.00  0.00    +0.020 A 
ATOM     14  C   UNL     1     -27.079 -13.662  20.882  0.00  0.00    +0.041 A 
ATOM     15 CL   UNL     1     -25.731 -14.405  21.723  0.00  0.00    -0.084 Cl
ATOM     16  C   UNL     1     -26.860 -12.958  19.693  0.00  0.00    +0.020 A 
ATOM     17  C   UNL     1     -27.934 -12.366  19.021  0.00  0.00    +0.010 A 
ENDBRANCH   3  11
BRANCH   1  18
ATOM     18  N   UNL     1     -32.819 -12.907  16.185  0.00  0.00    -0.297 N 
ATOM     19  H   UNL     1     -33.572 -13.549  16.523  0.00  0.00    +0.154 HD
BRANCH  18  25
ATOM     20  C   UNL     1     -33.513 -12.106  13.961  0.00  0.00    +0.141 A 
ATOM     21  C   UNL     1     -33.301 -12.039  12.569  0.00  0.00    +0.047 A 
ATOM     22  C   UNL     1     -32.199 -12.674  11.991  0.00  0.00    +0.004 A 
ATOM     23  C   UNL     1     -31.304 -13.385  12.788  0.00  0.00    +0.002 A 
ATOM     24  C   UNL     1     -31.503 -13.461  14.167  0.00  0.00    +0.027 A 
ATOM     25  C   UNL     1     -32.596 -12.810  14.768  0.00  0.00    +0.075 A 
BRANCH  20  27
ATOM     26  C   UNL     1     -34.789 -10.068  14.660  0.00  0.00    +0.277 C 
ATOM     27  O   UNL     1     -34.609 -11.478  14.574  0.00  0.00    -0.493 OA
ENDBRANCH  20  27
ENDBRANCH  18  25
ENDBRANCH   1  18
TORSDOF 4
ENDMDL
MODEL 7
REMARK VINA RESULT:    -5.062      2.151      4.879
REMARK INTER + INTRA:          -6.754
REMARK INTER:                  -6.301
REMARK INTRA:                  -0.453
REMARK UNBOUND:                -0.509
REMARK  Name = 
REMARK  5 active torsions:
REMARK  status: ('A' for Active; 'I' for Inactive)
REMARK    1  A    between atoms: C_1  and  O_2
REMARK    2  A    between atoms: O_2  and  C_3
REMARK    3  A    between atoms: C_8  and  N_9
REMARK    4  A    between atoms: N_9  and  C_10
REMARK    5  A    between atoms: C_12  and  C_13
REMARK                            x       y       z     vdW  Elec       q    Type
REMARK                         _______ _______ _______ _____ _____    ______ ____
ROOT
ATOM      1  C   UNL     1     -31.634 -12.136  16.800  0.00  0.00    +0.124 A 
ATOM      2  C   UNL     1     -30.596 -12.655  17.581  0.00  0.00    +0.053 A 
ATOM      3  C   UNL     1     -30.099 -11.926  18.671  0.00  0.00    -0.005 A 
ATOM      4  C   UNL     1     -30.651 -10.654  18.961  0.00  0.00    +0.008 A 
ATOM      5  C   UNL     1     -30.171  -9.834  20.002  0.00  0.00    +0.010 A 
ATOM      6  C   UNL     1     -30.756  -8.588  20.248  0.00  0.00    +0.001 A 
ATOM      7  C   UNL     1     -31.816  -8.140  19.459  0.00  0.00    +0.002 A 
ATOM      8  C   UNL     1     -32.293  -8.931  18.411  0.00  0.00    +0.028 A 
ATOM      9  C   UNL     1     -31.713 -10.178  18.153  0.00  0.00    +0.074 A 
ATOM     10  N   UNL     1     -32.170 -10.926  17.115  0.00  0.00    -0.232 NA
ENDROOT
BRANCH   3  11
ATOM     11  C   UNL     1     -29.026 -12.534  19.491  0.00  0.00    -0.017 A 
ATOM     12  C   UNL     1     -29.339 -13.226  20.673  0.00  0.00    +0.010 A 
ATOM     13  C   UNL     1     -28.324 -13.816  21.433  0.00  0.00    +0.020 A 
ATOM     14  C   UNL     1     -26.993 -13.728  21.014  0.00  0.00    +0.041 A 
ATOM     15 CL   UNL     1     -25.721 -14.469  21.968  0.00  0.00    -0.084 Cl
ATOM     16  C   UNL     1     -26.676 -13.051  19.832  0.00  0.00    +0.020 A 
ATOM     17  C   UNL     1     -27.689 -12.460  19.070  0.00  0.00    +0.010 A 
ENDBRANCH   3  11
BRANCH   1  18
ATOM     18  N   UNL     1     -32.161 -12.904  15.706  0.00  0.00    -0.297 N 
ATOM     19  H   UNL     1     -33.200 -12.949  15.592  0.00  0.00    +0.154 HD
BRANCH  18  25
ATOM     20  C   UNL     1     -31.594 -13.294  13.340  0.00  0.00    +0.141 A 
ATOM     21  C   UNL     1     -30.803 -13.936  12.366  0.00  0.00    +0.047 A 
ATOM     22  C   UNL     1     -29.785 -14.812  12.748  0.00  0.00    +0.004 A 
ATOM     23  C   UNL     1     -29.548 -15.062  14.099  0.00  0.00    +0.002 A 
ATOM     24  C   UNL     1     -30.325 -14.434  15.074  0.00  0.00    +0.027 A 
ATOM     25  C   UNL     1     -31.341 -13.534  14.706  0.00  0.00    +0.075 A 
BRANCH  20  27
ATOM     26  C   UNL     1     -33.817 -12.782  12.307  0.00  0.00    +0.277 C 
ATOM     27  O   UNL     1     -32.625 -12.407  12.989  0.00  0.00    -0.493 OA
ENDBRANCH  20  27
ENDBRANCH  18  25
ENDBRANCH   1  18
TORSDOF 4
ENDMDL
MODEL 8
REMARK VINA RESULT:    -5.056      3.107      3.981
REMARK INTER + INTRA:          -6.746
REMARK INTER:                  -5.790
REMARK INTRA:                  -0.957
REMARK UNBOUND:                -0.509
REMARK  Name = 
REMARK  5 active torsions:
REMARK  status: ('A' for Active; 'I' for Inactive)
REMARK    1  A    between atoms: C_1  and  O_2
REMARK    2  A    between atoms: O_2  and  C_3
REMARK    3  A    between atoms: C_8  and  N_9
REMARK    4  A    between atoms: N_9  and  C_10
REMARK    5  A    between atoms: C_12  and  C_13
REMARK                            x       y       z     vdW  Elec       q    Type
REMARK                         _______ _______ _______ _____ _____    ______ ____
ROOT
ATOM      1  C   UNL     1     -31.142  -9.787  17.597  0.00  0.00    +0.124 A 
ATOM      2  C   UNL     1     -30.300 -10.453  18.494  0.00  0.00    +0.053 A 
ATOM      3  C   UNL     1     -29.801 -11.726  18.183  0.00  0.00    -0.005 A 
ATOM      4  C   UNL     1     -30.174 -12.333  16.958  0.00  0.00    +0.008 A 
ATOM      5  C   UNL     1     -29.763 -13.633  16.596  0.00  0.00    +0.010 A 
ATOM      6  C   UNL     1     -30.155 -14.183  15.372  0.00  0.00    +0.001 A 
ATOM      7  C   UNL     1     -30.966 -13.454  14.500  0.00  0.00    +0.002 A 
ATOM      8  C   UNL     1     -31.398 -12.173  14.851  0.00  0.00    +0.028 A 
ATOM      9  C   UNL     1     -31.014 -11.613  16.075  0.00  0.00    +0.074 A 
ATOM     10  N   UNL     1     -31.462 -10.376  16.414  0.00  0.00    -0.232 NA
ENDROOT
BRANCH   3  11
ATOM     11  C   UNL     1     -28.882 -12.375  19.146  0.00  0.00    -0.017 A 
ATOM     12  C   UNL     1     -29.390 -13.105  20.233  0.00  0.00    +0.010 A 
ATOM     13  C   UNL     1     -28.519 -13.733  21.128  0.00  0.00    +0.020 A 
ATOM     14  C   UNL     1     -27.136 -13.645  20.939  0.00  0.00    +0.041 A 
ATOM     15 CL   UNL     1     -26.044 -14.434  22.062  0.00  0.00    -0.084 Cl
ATOM     16  C   UNL     1     -26.623 -12.930  19.851  0.00  0.00    +0.020 A 
ATOM     17  C   UNL     1     -27.493 -12.301  18.955  0.00  0.00    +0.010 A 
ENDBRANCH   3  11
BRANCH   1  18
ATOM     18  N   UNL     1     -31.621  -8.468  17.908  0.00  0.00    -0.297 N 
ATOM     19  H   UNL     1     -31.586  -7.742  17.156  0.00  0.00    +0.154 HD
BRANCH  18  25
ATOM     20  C   UNL     1     -33.582  -8.443  19.399  0.00  0.00    +0.141 A 
ATOM     21  C   UNL     1     -34.181  -8.070  20.620  0.00  0.00    +0.047 A 
ATOM     22  C   UNL     1     -33.447  -7.374  21.583  0.00  0.00    +0.004 A 
ATOM     23  C   UNL     1     -32.117  -7.036  21.339  0.00  0.00    +0.002 A 
ATOM     24  C   UNL     1     -31.512  -7.397  20.134  0.00  0.00    +0.027 A 
ATOM     25  C   UNL     1     -32.232  -8.116  19.162  0.00  0.00    +0.075 A 
BRANCH  20  27
ATOM     26  C   UNL     1     -35.061  -8.533  17.379  0.00  0.00    +0.277 C 
ATOM     27  O   UNL     1     -34.291  -9.144  18.410  0.00  0.00    -0.493 OA
ENDBRANCH  20  27
ENDBRANCH  18  25
ENDBRANCH   1  18
TORSDOF 4
ENDMDL
MODEL 9
REMARK VINA RESULT:    -5.001      4.171      8.234
REMARK INTER + INTRA:          -6.679
REMARK INTER:                  -6.191
REMARK INTRA:                  -0.488
REMARK UNBOUND:                -0.509
REMARK  Name = 
REMARK  5 active torsions:
REMARK  status: ('A' for Active; 'I' for Inactive)
REMARK    1  A    between atoms: C_1  and  O_2
REMARK    2  A    between atoms: O_2  and  C_3
REMARK    3  A    between atoms: C_8  and  N_9
REMARK    4  A    between atoms: N_9  and  C_10
REMARK    5  A    between atoms: C_12  and  C_13
REMARK                            x       y       z     vdW  Elec       q    Type
REMARK                         _______ _______ _______ _____ _____    ______ ____
ROOT
ATOM      1  C   UNL     1     -30.160 -12.605  20.028  0.00  0.00    +0.124 A 
ATOM      2  C   UNL     1     -30.853 -12.630  18.813  0.00  0.00    +0.053 A 
ATOM      3  C   UNL     1     -31.470 -11.469  18.325  0.00  0.00    -0.005 A 
ATOM      4  C   UNL     1     -31.395 -10.277  19.087  0.00  0.00    +0.008 A 
ATOM      5  C   UNL     1     -32.035  -9.082  18.696  0.00  0.00    +0.010 A 
ATOM      6  C   UNL     1     -31.925  -7.931  19.482  0.00  0.00    +0.001 A 
ATOM      7  C   UNL     1     -31.186  -7.956  20.667  0.00  0.00    +0.002 A 
ATOM      8  C   UNL     1     -30.562  -9.135  21.078  0.00  0.00    +0.028 A 
ATOM      9  C   UNL     1     -30.667 -10.294  20.302  0.00  0.00    +0.074 A 
ATOM     10  N   UNL     1     -30.076 -11.441  20.727  0.00  0.00    -0.232 NA
ENDROOT
BRANCH   3  11
ATOM     11  C   UNL     1     -32.158 -11.536  17.016  0.00  0.00    -0.017 A 
ATOM     12  C   UNL     1     -33.552 -11.699  16.953  0.00  0.00    +0.010 A 
ATOM     13  C   UNL     1     -34.201 -11.741  15.715  0.00  0.00    +0.020 A 
ATOM     14  C   UNL     1     -33.464 -11.611  14.533  0.00  0.00    +0.041 A 
ATOM     15 CL   UNL     1     -34.279 -11.663  12.980  0.00  0.00    -0.084 Cl
ATOM     16  C   UNL     1     -32.077 -11.436  14.589  0.00  0.00    +0.020 A 
ATOM     17  C   UNL     1     -31.427 -11.394  15.827  0.00  0.00    +0.010 A 
ENDBRANCH   3  11
BRANCH   1  18
ATOM     18  N   UNL     1     -29.501 -13.790  20.504  0.00  0.00    -0.297 N 
ATOM     19  H   UNL     1     -30.073 -14.658  20.618  0.00  0.00    +0.154 HD
BRANCH  18  25
ATOM     20  C   UNL     1     -27.186 -13.300  19.817  0.00  0.00    +0.141 A 
ATOM     21  C   UNL     1     -25.799 -13.411  20.042  0.00  0.00    +0.047 A 
ATOM     22  C   UNL     1     -25.317 -14.093  21.161  0.00  0.00    +0.004 A 
ATOM     23  C   UNL     1     -26.207 -14.676  22.062  0.00  0.00    +0.002 A 
ATOM     24  C   UNL     1     -27.583 -14.575  21.851  0.00  0.00    +0.027 A 
ATOM     25  C   UNL     1     -28.085 -13.874  20.739  0.00  0.00    +0.075 A 
BRANCH  20  27
ATOM     26  C   UNL     1     -27.299 -11.320  18.289  0.00  0.00    +0.277 C 
ATOM     27  O   UNL     1     -27.704 -12.621  18.703  0.00  0.00    -0.493 OA
ENDBRANCH  20  27
ENDBRANCH  18  25
ENDBRANCH   1  18
TORSDOF 4
ENDMDL
