MODEL 1
REMARK VINA RESULT:    -3.446      0.000      0.000
REMARK INTER + INTRA:          -6.283
REMARK INTER:                  -4.857
REMARK INTRA:                  -1.426
REMARK UNBOUND:                -1.426
REMARK  Name = 
REMARK  7 active torsions:
REMARK  status: ('A' for Active; 'I' for Inactive)
REMARK    1  A    between atoms: C_2  and  C_20
REMARK    2  A    between atoms: N_3  and  C_4
REMARK    3  A    between atoms: C_8  and  S_10
REMARK    4  A    between atoms: S_10  and  N_13
REMARK    5  A    between atoms: N_13  and  C_14
REMARK    6  A    between atoms: C_14  and  C_15
REMARK    7  A    between atoms: C_22  and  C_25
REMARK                            x       y       z     vdW  Elec       q    Type
REMARK                         _______ _______ _______ _____ _____    ______ ____
ROOT
ATOM      1  C   UNL     1     -30.145 -12.855  16.134  0.00  0.00    +0.036 A 
ATOM      2  C   UNL     1     -29.380 -14.028  16.049  0.00  0.00    +0.023 A 
ATOM      3  C   UNL     1     -29.580 -14.929  15.001  0.00  0.00    +0.004 A 
ATOM      4  C   UNL     1     -30.537 -14.662  14.019  0.00  0.00    +0.028 A 
ATOM      5  C   UNL     1     -31.298 -13.487  14.081  0.00  0.00    +0.107 A 
ATOM      6  C   UNL     1     -31.093 -12.581  15.130  0.00  0.00    +0.051 A 
ENDROOT
BRANCH   1   9
ATOM      7  O   UNL     1     -31.129 -13.060  18.849  0.00  0.00    -0.268 OA
ATOM      8  C   UNL     1     -30.554 -11.998  18.486  0.00  0.00    +0.270 C 
ATOM      9  N   UNL     1     -29.902 -11.929  17.207  0.00  0.00    -0.280 N 
ATOM     10  H   UNL     1     -29.137 -11.229  17.080  0.00  0.00    +0.155 HD
BRANCH   8  11
ATOM     11  C   UNL     1     -30.527 -10.851  19.409  0.00  0.00    +0.168 A 
ATOM     12  C   UNL     1     -31.133  -9.624  19.225  0.00  0.00    +0.086 A 
ATOM     13  C   UNL     1     -30.815  -8.926  20.376  0.00  0.00    +0.169 A 
ATOM     14  O   UNL     1     -30.090  -9.704  21.147  0.00  0.00    -0.354 OA
ATOM     15  N   UNL     1     -29.898 -10.868  20.600  0.00  0.00    -0.073 NA
BRANCH  13  16
ATOM     16  C   UNL     1     -31.204  -7.542  20.728  0.00  0.00    +0.038 A 
ATOM     17  C   UNL     1     -32.467  -7.054  20.358  0.00  0.00    +0.014 A 
ATOM     18  C   UNL     1     -32.841  -5.750  20.688  0.00  0.00    +0.020 A 
ATOM     19  C   UNL     1     -31.946  -4.939  21.386  0.00  0.00    +0.111 A 
ATOM     20  N   UNL     1     -30.725  -5.419  21.738  0.00  0.00    -0.263 NA
ATOM     21  C   UNL     1     -30.336  -6.686  21.430  0.00  0.00    +0.122 A 
ENDBRANCH  13  16
ENDBRANCH   8  11
ENDBRANCH   1   9
BRANCH   5  22
ATOM     22  S   UNL     1     -32.475 -13.115  12.822  0.00  0.00    +0.059 S 
ATOM     23  O   UNL     1     -32.641 -14.317  11.938  0.00  0.00    -0.153 OA
ATOM     24  O   UNL     1     -31.990 -11.967  11.981  0.00  0.00    -0.153 OA
BRANCH  22  25
ATOM     25  N   UNL     1     -34.009 -12.710  13.531  0.00  0.00    -0.183 NA
ATOM     26  H   UNL     1     -33.977 -13.034  14.525  0.00  0.00    +0.148 HD
BRANCH  25  27
ATOM     27  C   UNL     1     -34.185 -11.256  13.531  0.00  0.00    +0.180 C 
BRANCH  27  28
ATOM     28  C   UNL     1     -34.183 -10.752  14.938  0.00  0.00    +0.120 A 
ATOM     29  C   UNL     1     -33.935  -9.451  15.329  0.00  0.00    +0.046 A 
ATOM     30  C   UNL     1     -34.008  -9.459  16.705  0.00  0.00    +0.041 A 
ATOM     31  C   UNL     1     -34.291 -10.761  17.067  0.00  0.00    +0.195 A 
ATOM     32  O   UNL     1     -34.386 -11.509  15.991  0.00  0.00    -0.466 OA
ENDBRANCH  27  28
ENDBRANCH  25  27
ENDBRANCH  22  25
ENDBRANCH   5  22
TORSDOF 7
ENDMDL
MODEL 2
REMARK VINA RESULT:    -3.278      2.925      8.662
REMARK INTER + INTRA:          -6.046
REMARK INTER:                  -5.024
REMARK INTRA:                  -1.022
REMARK UNBOUND:                -1.426
REMARK  Name = 
REMARK  7 active torsions:
REMARK  status: ('A' for Active; 'I' for Inactive)
REMARK    1  A    between atoms: C_2  and  C_20
REMARK    2  A    between atoms: N_3  and  C_4
REMARK    3  A    between atoms: C_8  and  S_10
REMARK    4  A    between atoms: S_10  and  N_13
REMARK    5  A    between atoms: N_13  and  C_14
REMARK    6  A    between atoms: C_14  and  C_15
REMARK    7  A    between atoms: C_22  and  C_25
REMARK                            x       y       z     vdW  Elec       q    Type
REMARK                         _______ _______ _______ _____ _____    ______ ____
ROOT
ATOM      1  C   UNL     1     -33.992  -8.421  17.240  0.00  0.00    +0.036 A 
ATOM      2  C   UNL     1     -34.722  -7.247  17.005  0.00  0.00    +0.023 A 
ATOM      3  C   UNL     1     -35.061  -6.401  18.063  0.00  0.00    +0.004 A 
ATOM      4  C   UNL     1     -34.666  -6.713  19.366  0.00  0.00    +0.028 A 
ATOM      5  C   UNL     1     -33.923  -7.874  19.615  0.00  0.00    +0.107 A 
ATOM      6  C   UNL     1     -33.578  -8.719  18.552  0.00  0.00    +0.051 A 
ENDROOT
BRANCH   1   9
ATOM      7  O   UNL     1     -35.060 -11.044  16.639  0.00  0.00    -0.268 OA
ATOM      8  C   UNL     1     -34.071 -10.621  15.980  0.00  0.00    +0.270 C 
ATOM      9  N   UNL     1     -33.630  -9.262  16.132  0.00  0.00    -0.280 N 
ATOM     10  H   UNL     1     -33.096  -8.826  15.346  0.00  0.00    +0.155 HD
BRANCH   8  11
ATOM     11  C   UNL     1     -33.410 -11.528  15.027  0.00  0.00    +0.168 A 
ATOM     12  C   UNL     1     -32.117 -12.006  15.099  0.00  0.00    +0.086 A 
ATOM     13  C   UNL     1     -32.005 -12.817  13.983  0.00  0.00    +0.169 A 
ATOM     14  O   UNL     1     -33.150 -12.796  13.338  0.00  0.00    -0.354 OA
ATOM     15  N   UNL     1     -34.017 -12.033  13.936  0.00  0.00    -0.073 NA
BRANCH  13  16
ATOM     16  C   UNL     1     -30.825 -13.596  13.550  0.00  0.00    +0.038 A 
ATOM     17  C   UNL     1     -29.702 -13.694  14.388  0.00  0.00    +0.014 A 
ATOM     18  C   UNL     1     -28.586 -14.428  13.985  0.00  0.00    +0.020 A 
ATOM     19  C   UNL     1     -28.597 -15.062  12.743  0.00  0.00    +0.111 A 
ATOM     20  N   UNL     1     -29.686 -14.962  11.938  0.00  0.00    -0.263 NA
ATOM     21  C   UNL     1     -30.788 -14.253  12.306  0.00  0.00    +0.122 A 
ENDBRANCH  13  16
ENDBRANCH   8  11
ENDBRANCH   1   9
BRANCH   5  22
ATOM     22  S   UNL     1     -33.376  -8.255  21.248  0.00  0.00    +0.059 S 
ATOM     23  O   UNL     1     -34.551  -8.717  22.061  0.00  0.00    -0.153 OA
ATOM     24  O   UNL     1     -32.797  -7.030  21.900  0.00  0.00    -0.153 OA
BRANCH  22  25
ATOM     25  N   UNL     1     -32.179  -9.514  21.205  0.00  0.00    -0.183 NA
ATOM     26  H   UNL     1     -32.449 -10.159  20.427  0.00  0.00    +0.148 HD
BRANCH  25  27
ATOM     27  C   UNL     1     -30.870  -8.940  20.889  0.00  0.00    +0.180 C 
BRANCH  27  28
ATOM     28  C   UNL     1     -30.220  -9.742  19.808  0.00  0.00    +0.120 A 
ATOM     29  C   UNL     1     -29.585 -10.956  19.975  0.00  0.00    +0.046 A 
ATOM     30  C   UNL     1     -29.117 -11.302  18.725  0.00  0.00    +0.041 A 
ATOM     31  C   UNL     1     -29.490 -10.278  17.879  0.00  0.00    +0.195 A 
ATOM     32  O   UNL     1     -30.144  -9.360  18.554  0.00  0.00    -0.466 OA
ENDBRANCH  27  28
ENDBRANCH  25  27
ENDBRANCH  22  25
ENDBRANCH   5  22
TORSDOF 7
ENDMDL
MODEL 3
REMARK VINA RESULT:    -2.650      2.252      4.023
REMARK INTER + INTRA:          -5.161
REMARK INTER:                  -4.056
REMARK INTRA:                  -1.105
REMARK UNBOUND:                -1.426
REMARK  Name = 
REMARK  7 active torsions:
REMARK  status: ('A' for Active; 'I' for Inactive)
REMARK    1  A    between atoms: C_2  and  C_20
REMARK    2  A    between atoms: N_3  and  C_4
REMARK    3  A    between atoms: C_8  and  S_10
REMARK    4  A    between atoms: S_10  and  N_13
REMARK    5  A    between atoms: N_13  and  C_14
REMARK    6  A    between atoms: C_14  and  C_15
REMARK    7  A    between atoms: C_22  and  C_25
REMARK                            x       y       z     vdW  Elec       q    Type
REMARK                         _______ _______ _______ _____ _____    ______ ____
ROOT
ATOM      1  C   UNL     1     -32.562 -11.151  14.816  0.00  0.00    +0.036 A 
ATOM      2  C   UNL     1     -33.520 -10.843  13.838  0.00  0.00    +0.023 A 
ATOM      3  C   UNL     1     -33.530 -11.523  12.618  0.00  0.00    +0.004 A 
ATOM      4  C   UNL     1     -32.589 -12.524  12.365  0.00  0.00    +0.028 A 
ATOM      5  C   UNL     1     -31.636 -12.854  13.337  0.00  0.00    +0.107 A 
ATOM      6  C   UNL     1     -31.631 -12.176  14.564  0.00  0.00    +0.051 A 
ENDROOT
BRANCH   1   9
ATOM      7  O   UNL     1     -32.896 -12.337  17.435  0.00  0.00    -0.268 OA
ATOM      8  C   UNL     1     -32.926 -11.081  17.325  0.00  0.00    +0.270 C 
ATOM      9  N   UNL     1     -32.590 -10.457  16.075  0.00  0.00    -0.280 N 
ATOM     10  H   UNL     1     -32.251  -9.469  16.092  0.00  0.00    +0.155 HD
BRANCH   8  11
ATOM     11  C   UNL     1     -33.267 -10.271  18.506  0.00  0.00    +0.168 A 
ATOM     12  C   UNL     1     -32.998  -8.930  18.696  0.00  0.00    +0.086 A 
ATOM     13  C   UNL     1     -33.532  -8.663  19.943  0.00  0.00    +0.169 A 
ATOM     14  O   UNL     1     -34.062  -9.769  20.414  0.00  0.00    -0.354 OA
ATOM     15  N   UNL     1     -33.923 -10.755  19.578  0.00  0.00    -0.073 NA
BRANCH  13  16
ATOM     16  C   UNL     1     -33.535  -7.371  20.665  0.00  0.00    +0.038 A 
ATOM     17  C   UNL     1     -34.709  -6.919  21.289  0.00  0.00    +0.014 A 
ATOM     18  C   UNL     1     -34.718  -5.702  21.972  0.00  0.00    +0.020 A 
ATOM     19  C   UNL     1     -33.551  -4.941  22.028  0.00  0.00    +0.111 A 
ATOM     20  N   UNL     1     -32.419  -5.385  21.421  0.00  0.00    -0.263 NA
ATOM     21  C   UNL     1     -32.383  -6.567  20.749  0.00  0.00    +0.122 A 
ENDBRANCH  13  16
ENDBRANCH   8  11
ENDBRANCH   1   9
BRANCH   5  22
ATOM     22  S   UNL     1     -30.474 -14.150  13.051  0.00  0.00    +0.059 S 
ATOM     23  O   UNL     1     -29.172 -13.548  12.606  0.00  0.00    -0.153 OA
ATOM     24  O   UNL     1     -30.972 -15.062  11.965  0.00  0.00    -0.153 OA
BRANCH  22  25
ATOM     25  N   UNL     1     -30.216 -15.062  14.507  0.00  0.00    -0.183 NA
ATOM     26  H   UNL     1     -30.232 -16.072  14.236  0.00  0.00    +0.148 HD
BRANCH  25  27
ATOM     27  C   UNL     1     -28.892 -14.756  15.053  0.00  0.00    +0.180 C 
BRANCH  27  28
ATOM     28  C   UNL     1     -29.041 -14.120  16.397  0.00  0.00    +0.120 A 
ATOM     29  C   UNL     1     -30.050 -14.375  17.304  0.00  0.00    +0.046 A 
ATOM     30  C   UNL     1     -29.800 -13.547  18.377  0.00  0.00    +0.041 A 
ATOM     31  C   UNL     1     -28.660 -12.837  18.056  0.00  0.00    +0.195 A 
ATOM     32  O   UNL     1     -28.233 -13.198  16.868  0.00  0.00    -0.466 OA
ENDBRANCH  27  28
ENDBRANCH  25  27
ENDBRANCH  22  25
ENDBRANCH   5  22
TORSDOF 7
ENDMDL
MODEL 4
REMARK VINA RESULT:    -0.652      3.266      8.668
REMARK INTER + INTRA:          -2.345
REMARK INTER:                  -2.406
REMARK INTRA:                   0.061
REMARK UNBOUND:                -1.426
REMARK  Name = 
REMARK  7 active torsions:
REMARK  status: ('A' for Active; 'I' for Inactive)
REMARK    1  A    between atoms: C_2  and  C_20
REMARK    2  A    between atoms: N_3  and  C_4
REMARK    3  A    between atoms: C_8  and  S_10
REMARK    4  A    between atoms: S_10  and  N_13
REMARK    5  A    between atoms: N_13  and  C_14
REMARK    6  A    between atoms: C_14  and  C_15
REMARK    7  A    between atoms: C_22  and  C_25
REMARK                            x       y       z     vdW  Elec       q    Type
REMARK                         _______ _______ _______ _____ _____    ______ ____
ROOT
ATOM      1  C   UNL     1     -33.707  -8.997  17.827  0.00  0.00    +0.036 A 
ATOM      2  C   UNL     1     -34.009  -7.987  16.901  0.00  0.00    +0.023 A 
ATOM      3  C   UNL     1     -34.364  -6.709  17.339  0.00  0.00    +0.004 A 
ATOM      4  C   UNL     1     -34.411  -6.423  18.705  0.00  0.00    +0.028 A 
ATOM      5  C   UNL     1     -34.096  -7.416  19.642  0.00  0.00    +0.107 A 
ATOM      6  C   UNL     1     -33.734  -8.696  19.202  0.00  0.00    +0.051 A 
ENDROOT
BRANCH   1   9
ATOM      7  O   UNL     1     -31.159 -10.301  18.260  0.00  0.00    -0.268 OA
ATOM      8  C   UNL     1     -31.982 -10.819  17.457  0.00  0.00    +0.270 C 
ATOM      9  N   UNL     1     -33.316 -10.297  17.352  0.00  0.00    -0.280 N 
ATOM     10  H   UNL     1     -34.069 -10.931  17.002  0.00  0.00    +0.155 HD
BRANCH   8  11
ATOM     11  C   UNL     1     -31.565 -11.989  16.665  0.00  0.00    +0.168 A 
ATOM     12  C   UNL     1     -30.740 -11.988  15.558  0.00  0.00    +0.086 A 
ATOM     13  C   UNL     1     -30.659 -13.324  15.210  0.00  0.00    +0.169 A 
ATOM     14  O   UNL     1     -31.381 -14.020  16.060  0.00  0.00    -0.354 OA
ATOM     15  N   UNL     1     -31.938 -13.251  16.949  0.00  0.00    -0.073 NA
BRANCH  13  16
ATOM     16  C   UNL     1     -29.901 -13.919  14.087  0.00  0.00    +0.038 A 
ATOM     17  C   UNL     1     -28.499 -13.966  14.133  0.00  0.00    +0.014 A 
ATOM     18  C   UNL     1     -27.778 -14.526  13.078  0.00  0.00    +0.020 A 
ATOM     19  C   UNL     1     -28.465 -15.039  11.978  0.00  0.00    +0.111 A 
ATOM     20  N   UNL     1     -29.822 -14.989  11.940  0.00  0.00    -0.263 NA
ATOM     21  C   UNL     1     -30.549 -14.448  12.955  0.00  0.00    +0.122 A 
ENDBRANCH  13  16
ENDBRANCH   8  11
ENDBRANCH   1   9
BRANCH   5  22
ATOM     22  S   UNL     1     -34.103  -7.054  21.368  0.00  0.00    +0.059 S 
ATOM     23  O   UNL     1     -35.058  -7.985  22.057  0.00  0.00    -0.153 OA
ATOM     24  O   UNL     1     -34.561  -5.642  21.600  0.00  0.00    -0.153 OA
BRANCH  22  25
ATOM     25  N   UNL     1     -32.513  -7.269  22.035  0.00  0.00    -0.183 NA
ATOM     26  H   UNL     1     -32.575  -8.065  22.711  0.00  0.00    +0.148 HD
BRANCH  25  27
ATOM     27  C   UNL     1     -31.577  -7.643  20.973  0.00  0.00    +0.180 C 
BRANCH  27  28
ATOM     28  C   UNL     1     -31.062  -9.023  21.224  0.00  0.00    +0.120 A 
ATOM     29  C   UNL     1     -31.669  -9.981  22.012  0.00  0.00    +0.046 A 
ATOM     30  C   UNL     1     -30.830 -11.073  21.976  0.00  0.00    +0.041 A 
ATOM     31  C   UNL     1     -29.765 -10.713  21.176  0.00  0.00    +0.195 A 
ATOM     32  O   UNL     1     -29.930  -9.483  20.745  0.00  0.00    -0.466 OA
ENDBRANCH  27  28
ENDBRANCH  25  27
ENDBRANCH  22  25
ENDBRANCH   5  22
TORSDOF 7
ENDMDL
