=
 OpenBabel05162522073D

 28 31  0  0  0  0  0  0  0  0999 V2000
  -31.5940   -8.6700   19.8960 C   0  0  0  0  0  0  0  0  0  0  0  0
  -32.2130   -8.3850   18.7310 C   0  0  0  0  0  3  0  0  0  0  0  0
  -30.7290   -9.8590   20.0740 C   0  0  0  0  0  0  0  0  0  0  0  0
  -29.5950  -10.0560   19.3570 N   0  0  0  0  0  0  0  0  0  0  0  0
  -29.0290  -11.2550   19.6530 C   0  0  0  0  0  0  0  0  0  0  0  0
  -27.8470  -11.7300   19.0820 C   0  0  0  0  0  3  0  0  0  0  0  0
  -27.3720  -12.9950   19.4700 C   0  0  0  0  0  3  0  0  0  0  0  0
  -28.0790  -13.7640   20.4160 C   0  0  0  0  0  3  0  0  0  0  0  0
  -29.2670  -13.2750   20.9820 C   0  0  0  0  0  3  0  0  0  0  0  0
  -29.7150  -12.0190   20.5820 C   0  0  0  0  0  0  0  0  0  0  0  0
  -31.0880  -11.1900   21.0680 S   0  0  0  0  0  0  0  0  0  0  0  0
  -32.3310   -9.3100   17.5830 C   0  0  0  0  0  0  0  0  0  0  0  0
  -31.2370   -9.4810   16.7250 C   0  0  0  0  0  3  0  0  0  0  0  0
  -31.3320  -10.3270   15.6170 C   0  0  0  0  0  3  0  0  0  0  0  0
  -32.5330  -11.0050   15.3350 C   0  0  0  0  0  0  0  0  0  0  0  0
  -33.6380  -10.8070   16.1820 C   0  0  0  0  0  3  0  0  0  0  0  0
  -33.5420   -9.9590   17.2880 C   0  0  0  0  0  3  0  0  0  0  0  0
  -32.6340  -11.9070   14.1600 C   0  0  0  0  0  0  0  0  0  0  0  0
  -31.5510  -12.7290   13.7950 C   0  0  0  0  0  3  0  0  0  0  0  0
  -31.6490  -13.5800   12.6900 C   0  0  0  0  0  3  0  0  0  0  0  0
  -32.8250  -13.6210   11.9380 C   0  0  0  0  0  3  0  0  0  0  0  0
  -33.9070  -12.8090   12.2910 C   0  0  0  0  0  3  0  0  0  0  0  0
  -33.8140  -11.9560   13.3950 C   0  0  0  0  0  3  0  0  0  0  0  0
  -31.6700   -7.6760   21.0260 C   0  0  0  0  0  2  0  0  0  0  0  0
  -31.3010   -5.4210   20.3240 O   0  0  0  0  0  0  0  0  0  0  0  0
  -30.7940   -6.4980   20.7340 C   0  0  0  0  0  0  0  0  0  0  0  0
  -29.4140   -6.6090   20.8740 O   0  0  0  0  0  0  0  0  0  0  0  0
  -28.8050   -5.8380   20.6320 H   0  0  0  0  0  0  0  0  0  0  0  0
  1  3  1  0  0  0  0
  1 24  1  0  0  0  0
  2  1  2  0  0  0  0
  3 11  1  0  0  0  0
  4  5  1  0  0  0  0
  4  3  2  0  0  0  0
  5 10  1  0  0  0  0
  6  7  1  0  0  0  0
  6  5  2  0  0  0  0
  7  8  2  0  0  0  0
  8  9  1  0  0  0  0
 10  9  2  0  0  0  0
 10 11  1  0  0  0  0
 12  2  1  0  0  0  0
 13 12  2  0  0  0  0
 14 13  1  0  0  0  0
 15 14  2  0  0  0  0
 15 16  1  0  0  0  0
 16 17  2  0  0  0  0
 17 12  1  0  0  0  0
 18 15  1  0  0  0  0
 19 18  1  0  0  0  0
 20 19  2  0  0  0  0
 21 22  2  0  0  0  0
 21 20  1  0  0  0  0
 22 23  1  0  0  0  0
 23 18  2  0  0  0  0
 25 26  2  0  0  0  0
 26 27  1  0  0  0  0
 26 24  1  0  0  0  0
 28 27  1  0  0  0  0
M  END
>  <MODEL>
1

>  <REMARK>
 VINA RESULT:    -6.223      0.000      0.000
 INTER + INTRA:          -9.361
 INTER:                  -8.223
 INTRA:                  -1.138
 UNBOUND:                -1.138
  Name = 
  6 active torsions:
  status: ('A' for Active; 'I' for Inactive)
    1  A    between atoms: C_2  and  O_3
    2  A    between atoms: C_2  and  C_4
    3  A    between atoms: C_4  and  C_5
    4  A    between atoms: C_5  and  C_19
    5  A    between atoms: C_6  and  C_7
    6  A    between atoms: C_10  and  C_13
                            x       y       z     vdW  Elec       q    Type
                         _______ _______ _______ _____ _____    ______ ____

>  <TORSDO>
F 6

$$$$
