ligand15.pdb
 OpenBabel05162522583D

 44 47  0  0  0  0  0  0  0  0999 V2000
  -31.5940   -8.6700   19.8960 C   0  0  0  0  0  0  0  0  0  0  0  0
  -32.2130   -8.3850   18.7310 C   0  0  0  0  0  0  0  0  0  0  0  0
  -30.7290   -9.8590   20.0740 C   0  0  0  0  0  0  0  0  0  0  0  0
  -29.5950  -10.0560   19.3570 N   0  0  0  0  0  0  0  0  0  0  0  0
  -29.0290  -11.2550   19.6530 C   0  0  0  0  0  0  0  0  0  0  0  0
  -27.8470  -11.7300   19.0820 C   0  0  0  0  0  0  0  0  0  0  0  0
  -27.3720  -12.9950   19.4700 C   0  0  0  0  0  0  0  0  0  0  0  0
  -28.0790  -13.7640   20.4160 C   0  0  0  0  0  0  0  0  0  0  0  0
  -29.2670  -13.2750   20.9820 C   0  0  0  0  0  0  0  0  0  0  0  0
  -29.7150  -12.0190   20.5820 C   0  0  0  0  0  0  0  0  0  0  0  0
  -31.0880  -11.1900   21.0680 S   0  0  0  0  0  0  0  0  0  0  0  0
  -32.3310   -9.3100   17.5830 C   0  0  0  0  0  0  0  0  0  0  0  0
  -31.2370   -9.4810   16.7250 C   0  0  0  0  0  0  0  0  0  0  0  0
  -31.3320  -10.3270   15.6170 C   0  0  0  0  0  0  0  0  0  0  0  0
  -32.5330  -11.0050   15.3350 C   0  0  0  0  0  0  0  0  0  0  0  0
  -33.6380  -10.8070   16.1820 C   0  0  0  0  0  0  0  0  0  0  0  0
  -33.5420   -9.9590   17.2880 C   0  0  0  0  0  0  0  0  0  0  0  0
  -32.6340  -11.9070   14.1600 C   0  0  0  0  0  0  0  0  0  0  0  0
  -31.5510  -12.7290   13.7950 C   0  0  0  0  0  0  0  0  0  0  0  0
  -31.6490  -13.5800   12.6900 C   0  0  0  0  0  0  0  0  0  0  0  0
  -32.8250  -13.6210   11.9380 C   0  0  0  0  0  0  0  0  0  0  0  0
  -33.9070  -12.8090   12.2910 C   0  0  0  0  0  0  0  0  0  0  0  0
  -33.8140  -11.9560   13.3950 C   0  0  0  0  0  0  0  0  0  0  0  0
  -31.6700   -7.6760   21.0260 C   0  0  0  0  0  0  0  0  0  0  0  0
  -31.3010   -5.4210   20.3240 O   0  0  0  0  0  0  0  0  0  0  0  0
  -30.7940   -6.4980   20.7340 C   0  0  0  0  0  0  0  0  0  0  0  0
  -29.4140   -6.6090   20.8740 O   0  0  0  0  0  0  0  0  0  0  0  0
  -28.8050   -5.8380   20.6320 H   0  0  0  0  0  0  0  0  0  0  0  0
  -32.6368   -7.4491   18.6337 H   0  0  0  0  0  0  0  0  0  0  0  0
  -27.3324  -11.1641   18.3892 H   0  0  0  0  0  0  0  0  0  0  0  0
  -26.4997  -13.3630   19.0593 H   0  0  0  0  0  0  0  0  0  0  0  0
  -27.7216  -14.6913   20.6941 H   0  0  0  0  0  0  0  0  0  0  0  0
  -29.7930  -13.8305   21.6746 H   0  0  0  0  0  0  0  0  0  0  0  0
  -30.3551   -8.9789   16.9125 H   0  0  0  0  0  0  0  0  0  0  0  0
  -30.5147  -10.4559   15.0001 H   0  0  0  0  0  0  0  0  0  0  0  0
  -34.5272  -11.2922   15.9849 H   0  0  0  0  0  0  0  0  0  0  0  0
  -34.3652   -9.8083   17.8919 H   0  0  0  0  0  0  0  0  0  0  0  0
  -30.6792  -12.7033   14.3466 H   0  0  0  0  0  0  0  0  0  0  0  0
  -30.8503  -14.1793   12.4295 H   0  0  0  0  0  0  0  0  0  0  0  0
  -32.8953  -14.2499   11.1228 H   0  0  0  0  0  0  0  0  0  0  0  0
  -34.7762  -12.8393   11.7355 H   0  0  0  0  0  0  0  0  0  0  0  0
  -34.6158  -11.3586   13.6504 H   0  0  0  0  0  0  0  0  0  0  0  0
  -31.3440   -8.1438   21.9314 H   0  0  0  0  0  0  0  0  0  0  0  0
  -32.6813   -7.3429   21.1322 H   0  0  0  0  0  0  0  0  0  0  0  0
  1  2  2  0  0  0  0
  1  3  1  0  0  0  0
  1 24  1  0  0  0  0
  2 12  1  0  0  0  0
  2 29  1  0  0  0  0
  3  4  2  0  0  0  0
  3 11  1  0  0  0  0
  4  5  1  0  0  0  0
  5  6  2  0  0  0  0
  5 10  1  0  0  0  0
  6  7  1  0  0  0  0
  6 30  1  0  0  0  0
  7  8  2  0  0  0  0
  7 31  1  0  0  0  0
  8  9  1  0  0  0  0
  8 32  1  0  0  0  0
  9 10  2  0  0  0  0
  9 33  1  0  0  0  0
 10 11  1  0  0  0  0
 12 13  2  0  0  0  0
 12 17  1  0  0  0  0
 13 14  1  0  0  0  0
 13 34  1  0  0  0  0
 14 15  2  0  0  0  0
 14 35  1  0  0  0  0
 15 18  1  0  0  0  0
 15 16  1  0  0  0  0
 16 17  2  0  0  0  0
 16 36  1  0  0  0  0
 17 37  1  0  0  0  0
 18 23  2  0  0  0  0
 18 19  1  0  0  0  0
 19 20  2  0  0  0  0
 19 38  1  0  0  0  0
 20 21  1  0  0  0  0
 20 39  1  0  0  0  0
 21 22  2  0  0  0  0
 21 40  1  0  0  0  0
 22 23  1  0  0  0  0
 22 41  1  0  0  0  0
 23 42  1  0  0  0  0
 24 26  1  0  0  0  0
 24 43  1  0  0  0  0
 24 44  1  0  0  0  0
 25 26  2  0  0  0  0
 26 27  1  0  0  0  0
 27 28  1  0  0  0  0
M  END
>  <MODEL>
1

>  <REMARK>
 VINA RESULT:    -6.223      0.000      0.000
 INTER + INTRA:          -9.361
 INTER:                  -8.223
 INTRA:                  -1.138
 UNBOUND:                -1.138
  Name = 
  6 active torsions:
  status: ('A' for Active; 'I' for Inactive)
    1  A    between atoms: C_2  and  O_3
    2  A    between atoms: C_2  and  C_4
    3  A    between atoms: C_4  and  C_5
    4  A    between atoms: C_5  and  C_19
    5  A    between atoms: C_6  and  C_7
    6  A    between atoms: C_10  and  C_13
                            x       y       z     vdW  Elec       q    Type
                         _______ _______ _______ _____ _____    ______ ____

>  <COMPND>
    = 

>  <AUTHOR>
    GENERATED BY OPEN BABEL 3.1.1

>  <MASTER>
        0    0    0    0    0    0    0    0   28    0   28    0

$$$$
