MODEL 1
REMARK VINA RESULT:    -5.441      0.000      0.000
REMARK INTER + INTRA:          -8.769
REMARK INTER:                  -7.350
REMARK INTRA:                  -1.419
REMARK UNBOUND:                -1.419
REMARK  Name = 
REMARK  6 active torsions:
REMARK  status: ('A' for Active; 'I' for Inactive)
REMARK    1  A    between atoms: C_2  and  C_4
REMARK    2  A    between atoms: C_6  and  N_11
REMARK    3  A    between atoms: C_12  and  C_14
REMARK    4  A    between atoms: C_19  and  O_20
REMARK    5  A    between atoms: O_20  and  C_21
REMARK    6  A    between atoms: C_21  and  C_22
REMARK                            x       y       z     vdW  Elec       q    Type
REMARK                         _______ _______ _______ _____ _____    ______ ____
ROOT
ATOM      1  N   UNL     1     -32.279 -12.734  16.676  0.00  0.00    -0.281 N 
ATOM      2  C   UNL     1     -32.265 -11.650  15.729  0.00  0.00    +0.252 C 
ATOM      3  O   UNL     1     -31.702 -10.558  16.014  0.00  0.00    -0.270 OA
ATOM      4  H   UNL     1     -32.732 -13.633  16.398  0.00  0.00    +0.155 HD
ENDROOT
BRANCH   1   7
ATOM      5  C   UNL     1     -29.640 -13.066  19.347  0.00  0.00    +0.073 A 
ATOM      6  C   UNL     1     -30.284 -13.129  18.096  0.00  0.00    +0.039 A 
ATOM      7  C   UNL     1     -31.615 -12.699  17.951  0.00  0.00    +0.035 A 
ATOM      8  C   UNL     1     -32.285 -12.158  19.054  0.00  0.00    +0.026 A 
ATOM      9  C   UNL     1     -31.653 -12.083  20.297  0.00  0.00    +0.041 A 
ATOM     10  C   UNL     1     -30.340 -12.536  20.449  0.00  0.00    +0.136 A 
ATOM     11  F   UNL     1     -29.764 -12.466  21.675  0.00  0.00    -0.205 F 
BRANCH   5  13
ATOM     12  N   UNL     1     -27.904 -14.641  20.323  0.00  0.00    -0.325 N 
ATOM     13  C   UNL     1     -28.237 -13.526  19.492  0.00  0.00    +0.244 C 
ATOM     14  O   UNL     1     -27.313 -12.926  18.879  0.00  0.00    -0.270 OA
ATOM     15  H   UNL     1     -26.917 -14.982  20.368  0.00  0.00    +0.145 HD
ATOM     16  H   UNL     1     -28.607 -15.082  20.954  0.00  0.00    +0.145 HD
ENDBRANCH   5  13
ENDBRANCH   1   7
BRANCH   2  17
ATOM     17  C   UNL     1     -32.914 -11.799  14.409  0.00  0.00    +0.079 A 
ATOM     18  C   UNL     1     -34.012 -10.981  14.091  0.00  0.00    +0.017 A 
ATOM     19  C   UNL     1     -34.667 -11.121  12.867  0.00  0.00    +0.001 A 
ATOM     20  C   UNL     1     -34.230 -12.071  11.946  0.00  0.00    +0.004 A 
ATOM     21  C   UNL     1     -33.127 -12.876  12.237  0.00  0.00    +0.046 A 
ATOM     22  C   UNL     1     -32.448 -12.741  13.466  0.00  0.00    +0.133 A 
BRANCH  22  23
ATOM     23  O   UNL     1     -31.296 -13.490  13.765  0.00  0.00    -0.491 OA
BRANCH  23  24
ATOM     24  C   UNL     1     -30.353 -13.985  12.816  0.00  0.00    +0.232 C 
BRANCH  24  25
ATOM     25  C   UNL     1     -29.472 -15.062  13.462  0.00  0.00    +0.027 C 
ATOM     26  C   UNL     1     -27.993 -14.726  13.580  0.00  0.00    +0.007 C 
ATOM     27  C   UNL     1     -28.884 -14.682  14.812  0.00  0.00    +0.007 C 
ENDBRANCH  24  25
ENDBRANCH  23  24
ENDBRANCH  22  23
ENDBRANCH   2  17
TORSDOF 6
ENDMDL