MODEL 1
REMARK VINA RESULT:    -6.342      0.000      0.000
REMARK INTER + INTRA:          -9.618
REMARK INTER:                  -8.195
REMARK INTRA:                  -1.423
REMARK UNBOUND:                -1.423
REMARK  Name = 
REMARK  7 active torsions:
REMARK  status: ('A' for Active; 'I' for Inactive)
REMARK    1  A    between atoms: C_1  and  C_2
REMARK    2  A    between atoms: C_9  and  S_13
REMARK    3  A    between atoms: S_13  and  N_16
REMARK    4  A    between atoms: N_16  and  C_17
REMARK    5  A    between atoms: C_17  and  C_18
REMARK    6  A    between atoms: C_18  and  C_19
REMARK    7  A    between atoms: C_18  and  C_20
REMARK                            x       y       z     vdW  Elec       q    Type
REMARK                         _______ _______ _______ _____ _____    ______ ____
ROOT
ATOM      1  S   UNL     1     -30.812  -9.765  17.166  0.00  0.00    +0.058 S 
ATOM      2  O   UNL     1     -31.395  -8.735  18.092  0.00  0.00    -0.153 OA
ATOM      3  O   UNL     1     -30.070  -9.069  16.057  0.00  0.00    -0.153 OA
ENDROOT
BRANCH   1  12
ATOM      4  C   UNL     1     -25.287 -14.780  21.094  0.00  0.00    +0.109 C 
ATOM      5  C   UNL     1     -25.834 -13.598  20.354  0.00  0.00    +0.217 C 
ATOM      6  O   UNL     1     -25.032 -12.819  19.776  0.00  0.00    -0.276 OA
ATOM      7  N   UNL     1     -27.249 -13.331  20.345  0.00  0.00    -0.271 N 
ATOM      8  C   UNL     1     -28.199 -13.918  21.295  0.00  0.00    +0.118 C 
ATOM      9  C   UNL     1     -29.566 -13.258  21.004  0.00  0.00    +0.056 C 
ATOM     10  C   UNL     1     -29.275 -12.353  19.860  0.00  0.00    -0.023 A 
ATOM     11  C   UNL     1     -30.176 -11.545  19.163  0.00  0.00    +0.034 A 
ATOM     12  C   UNL     1     -29.705 -10.790  18.075  0.00  0.00    +0.106 A 
ATOM     13  C   UNL     1     -28.348 -10.878  17.697  0.00  0.00    +0.030 A 
ATOM     14  C   UNL     1     -27.462 -11.698  18.414  0.00  0.00    +0.026 A 
ATOM     15  C   UNL     1     -27.953 -12.420  19.511  0.00  0.00    +0.040 A 
ENDBRANCH   1  12
BRANCH   1  16
ATOM     16  N   UNL     1     -32.099 -10.716  16.482  0.00  0.00    -0.189 NA
ATOM     17  H   UNL     1     -32.990 -10.195  16.646  0.00  0.00    +0.148 HD
BRANCH  16  18
ATOM     18  C   UNL     1     -31.869 -10.979  15.048  0.00  0.00    +0.113 C 
BRANCH  18  19
ATOM     19  C   UNL     1     -32.251 -12.421  14.634  0.00  0.00    +0.031 C 
ATOM     20  C   UNL     1     -32.992 -12.450  13.288  0.00  0.00    +0.014 C 
BRANCH  19  21
ATOM     21  C   UNL     1     -31.016 -13.304  14.578  0.00  0.00    -0.043 A 
ATOM     22  C   UNL     1     -30.308 -13.639  15.749  0.00  0.00    +0.004 A 
ATOM     23  C   UNL     1     -29.172 -14.452  15.682  0.00  0.00    +0.000 A 
ATOM     24  C   UNL     1     -28.733 -14.941  14.450  0.00  0.00    +0.000 A 
ATOM     25  C   UNL     1     -29.430 -14.620  13.282  0.00  0.00    +0.000 A 
ATOM     26  C   UNL     1     -30.566 -13.808  13.344  0.00  0.00    +0.004 A 
ENDBRANCH  19  21
ENDBRANCH  18  19
ENDBRANCH  16  18
ENDBRANCH   1  16
TORSDOF 5
ENDMDL
MODEL 2
REMARK VINA RESULT:    -6.310      0.962      1.470
REMARK INTER + INTRA:          -9.577
REMARK INTER:                  -6.951
REMARK INTRA:                  -2.625
REMARK UNBOUND:                -1.423
REMARK  Name = 
REMARK  7 active torsions:
REMARK  status: ('A' for Active; 'I' for Inactive)
REMARK    1  A    between atoms: C_1  and  C_2
REMARK    2  A    between atoms: C_9  and  S_13
REMARK    3  A    between atoms: S_13  and  N_16
REMARK    4  A    between atoms: N_16  and  C_17
REMARK    5  A    between atoms: C_17  and  C_18
REMARK    6  A    between atoms: C_18  and  C_19
REMARK    7  A    between atoms: C_18  and  C_20
REMARK                            x       y       z     vdW  Elec       q    Type
REMARK                         _______ _______ _______ _____ _____    ______ ____
ROOT
ATOM      1  S   UNL     1     -31.024  -9.572  17.593  0.00  0.00    +0.058 S 
ATOM      2  O   UNL     1     -31.266  -8.380  18.474  0.00  0.00    -0.153 OA
ATOM      3  O   UNL     1     -30.473  -9.108  16.272  0.00  0.00    -0.153 OA
ENDROOT
BRANCH   1  12
ATOM      4  C   UNL     1     -25.304 -14.796  20.921  0.00  0.00    +0.109 C 
ATOM      5  C   UNL     1     -25.884 -13.585  20.259  0.00  0.00    +0.217 C 
ATOM      6  O   UNL     1     -25.116 -12.806  19.636  0.00  0.00    -0.276 OA
ATOM      7  N   UNL     1     -27.289 -13.291  20.374  0.00  0.00    -0.271 N 
ATOM      8  C   UNL     1     -28.170 -13.885  21.385  0.00  0.00    +0.118 C 
ATOM      9  C   UNL     1     -29.542 -13.190  21.224  0.00  0.00    +0.056 C 
ATOM     10  C   UNL     1     -29.327 -12.260  20.084  0.00  0.00    -0.023 A 
ATOM     11  C   UNL     1     -30.265 -11.417  19.484  0.00  0.00    +0.034 A 
ATOM     12  C   UNL     1     -29.869 -10.642  18.380  0.00  0.00    +0.106 A 
ATOM     13  C   UNL     1     -28.550 -10.746  17.889  0.00  0.00    +0.030 A 
ATOM     14  C   UNL     1     -27.625 -11.602  18.509  0.00  0.00    +0.026 A 
ATOM     15  C   UNL     1     -28.040 -12.343  19.624  0.00  0.00    +0.040 A 
ENDBRANCH   1  12
BRANCH   1  16
ATOM     16  N   UNL     1     -32.532 -10.399  17.322  0.00  0.00    -0.189 NA
ATOM     17  H   UNL     1     -33.268  -9.883  17.856  0.00  0.00    +0.148 HD
BRANCH  16  18
ATOM     18  C   UNL     1     -32.850 -10.480  15.883  0.00  0.00    +0.113 C 
BRANCH  18  19
ATOM     19  C   UNL     1     -33.099 -11.931  15.405  0.00  0.00    +0.031 C 
ATOM     20  C   UNL     1     -33.253 -12.009  13.877  0.00  0.00    +0.014 C 
BRANCH  19  21
ATOM     21  C   UNL     1     -31.981 -12.847  15.872  0.00  0.00    -0.043 A 
ATOM     22  C   UNL     1     -30.737 -12.871  15.212  0.00  0.00    +0.004 A 
ATOM     23  C   UNL     1     -29.718 -13.721  15.653  0.00  0.00    +0.000 A 
ATOM     24  C   UNL     1     -29.927 -14.552  16.755  0.00  0.00    +0.000 A 
ATOM     25  C   UNL     1     -31.155 -14.534  17.421  0.00  0.00    +0.000 A 
ATOM     26  C   UNL     1     -32.177 -13.686  16.984  0.00  0.00    +0.004 A 
ENDBRANCH  19  21
ENDBRANCH  18  19
ENDBRANCH  16  18
ENDBRANCH   1  16
TORSDOF 5
ENDMDL
MODEL 3
REMARK VINA RESULT:    -5.872      1.932      2.806
REMARK INTER + INTRA:          -9.011
REMARK INTER:                  -5.857
REMARK INTRA:                  -3.154
REMARK UNBOUND:                -1.423
REMARK  Name = 
REMARK  7 active torsions:
REMARK  status: ('A' for Active; 'I' for Inactive)
REMARK    1  A    between atoms: C_1  and  C_2
REMARK    2  A    between atoms: C_9  and  S_13
REMARK    3  A    between atoms: S_13  and  N_16
REMARK    4  A    between atoms: N_16  and  C_17
REMARK    5  A    between atoms: C_17  and  C_18
REMARK    6  A    between atoms: C_18  and  C_19
REMARK    7  A    between atoms: C_18  and  C_20
REMARK                            x       y       z     vdW  Elec       q    Type
REMARK                         _______ _______ _______ _____ _____    ______ ____
ROOT
ATOM      1  S   UNL     1     -32.978  -9.203  18.920  0.00  0.00    +0.058 S 
ATOM      2  O   UNL     1     -34.028  -9.420  19.972  0.00  0.00    -0.153 OA
ATOM      3  O   UNL     1     -32.556  -7.759  18.932  0.00  0.00    -0.153 OA
ENDROOT
BRANCH   1  12
ATOM      4  C   UNL     1     -26.442 -14.074  21.078  0.00  0.00    +0.109 C 
ATOM      5  C   UNL     1     -27.858 -13.630  20.876  0.00  0.00    +0.217 C 
ATOM      6  O   UNL     1     -28.778 -14.232  21.489  0.00  0.00    -0.276 OA
ATOM      7  N   UNL     1     -28.167 -12.563  19.960  0.00  0.00    -0.271 N 
ATOM      8  C   UNL     1     -27.250 -12.086  18.920  0.00  0.00    +0.118 C 
ATOM      9  C   UNL     1     -28.036 -11.040  18.096  0.00  0.00    +0.056 C 
ATOM     10  C   UNL     1     -29.357 -10.986  18.778  0.00  0.00    -0.023 A 
ATOM     11  C   UNL     1     -30.440 -10.160  18.471  0.00  0.00    +0.034 A 
ATOM     12  C   UNL     1     -31.594 -10.234  19.271  0.00  0.00    +0.106 A 
ATOM     13  C   UNL     1     -31.627 -11.116  20.371  0.00  0.00    +0.030 A 
ATOM     14  C   UNL     1     -30.524 -11.936  20.660  0.00  0.00    +0.026 A 
ATOM     15  C   UNL     1     -29.397 -11.861  19.830  0.00  0.00    +0.040 A 
ENDBRANCH   1  12
BRANCH   1  16
ATOM     16  N   UNL     1     -33.643  -9.589  17.358  0.00  0.00    -0.189 NA
ATOM     17  H   UNL     1     -32.941  -9.296  16.641  0.00  0.00    +0.148 HD
BRANCH  16  18
ATOM     18  C   UNL     1     -33.972 -11.025  17.253  0.00  0.00    +0.113 C 
BRANCH  18  19
ATOM     19  C   UNL     1     -33.456 -11.663  15.941  0.00  0.00    +0.031 C 
ATOM     20  C   UNL     1     -33.057 -10.598  14.908  0.00  0.00    +0.014 C 
BRANCH  19  21
ATOM     21  C   UNL     1     -32.287 -12.592  16.223  0.00  0.00    -0.043 A 
ATOM     22  C   UNL     1     -32.313 -13.485  17.312  0.00  0.00    +0.004 A 
ATOM     23  C   UNL     1     -31.229 -14.332  17.560  0.00  0.00    +0.000 A 
ATOM     24  C   UNL     1     -30.110 -14.300  16.725  0.00  0.00    +0.000 A 
ATOM     25  C   UNL     1     -30.073 -13.421  15.639  0.00  0.00    +0.000 A 
ATOM     26  C   UNL     1     -31.155 -12.572  15.387  0.00  0.00    +0.004 A 
ENDBRANCH  19  21
ENDBRANCH  18  19
ENDBRANCH  16  18
ENDBRANCH   1  16
TORSDOF 5
ENDMDL
MODEL 4
REMARK VINA RESULT:    -5.683      2.732      5.516
REMARK INTER + INTRA:          -8.767
REMARK INTER:                  -5.865
REMARK INTRA:                  -2.902
REMARK UNBOUND:                -1.423
REMARK  Name = 
REMARK  7 active torsions:
REMARK  status: ('A' for Active; 'I' for Inactive)
REMARK    1  A    between atoms: C_1  and  C_2
REMARK    2  A    between atoms: C_9  and  S_13
REMARK    3  A    between atoms: S_13  and  N_16
REMARK    4  A    between atoms: N_16  and  C_17
REMARK    5  A    between atoms: C_17  and  C_18
REMARK    6  A    between atoms: C_18  and  C_19
REMARK    7  A    between atoms: C_18  and  C_20
REMARK                            x       y       z     vdW  Elec       q    Type
REMARK                         _______ _______ _______ _____ _____    ______ ____
ROOT
ATOM      1  S   UNL     1     -28.020 -12.605  19.028  0.00  0.00    +0.058 S 
ATOM      2  O   UNL     1     -26.792 -11.740  19.008  0.00  0.00    -0.153 OA
ATOM      3  O   UNL     1     -27.905 -13.601  20.152  0.00  0.00    -0.153 OA
ENDROOT
BRANCH   1  12
ATOM      4  C   UNL     1     -34.492  -7.339  20.246  0.00  0.00    +0.109 C 
ATOM      5  C   UNL     1     -33.341  -8.020  19.571  0.00  0.00    +0.217 C 
ATOM      6  O   UNL     1     -32.810  -7.468  18.572  0.00  0.00    -0.276 OA
ATOM      7  N   UNL     1     -32.881  -9.305  20.028  0.00  0.00    -0.271 N 
ATOM      8  C   UNL     1     -33.664 -10.196  20.891  0.00  0.00    +0.118 C 
ATOM      9  C   UNL     1     -32.849 -11.504  21.015  0.00  0.00    +0.056 C 
ATOM     10  C   UNL     1     -31.624 -11.224  20.219  0.00  0.00    -0.023 A 
ATOM     11  C   UNL     1     -30.519 -12.058  20.036  0.00  0.00    +0.034 A 
ATOM     12  C   UNL     1     -29.434 -11.586  19.276  0.00  0.00    +0.106 A 
ATOM     13  C   UNL     1     -29.473 -10.283  18.736  0.00  0.00    +0.030 A 
ATOM     14  C   UNL     1     -30.595  -9.462  18.935  0.00  0.00    +0.026 A 
ATOM     15  C   UNL     1     -31.674  -9.969  19.675  0.00  0.00    +0.040 A 
ENDBRANCH   1  12
BRANCH   1  16
ATOM     16  N   UNL     1     -28.144 -13.461  17.518  0.00  0.00    -0.189 NA
ATOM     17  H   UNL     1     -27.485 -14.272  17.567  0.00  0.00    +0.148 HD
BRANCH  16  18
ATOM     18  C   UNL     1     -29.531 -13.894  17.257  0.00  0.00    +0.113 C 
BRANCH  18  19
ATOM     19  C   UNL     1     -30.049 -13.444  15.870  0.00  0.00    +0.031 C 
ATOM     20  C   UNL     1     -30.423 -14.644  14.985  0.00  0.00    +0.014 C 
BRANCH  19  21
ATOM     21  C   UNL     1     -31.235 -12.507  16.021  0.00  0.00    -0.043 A 
ATOM     22  C   UNL     1     -31.223 -11.221  15.447  0.00  0.00    +0.004 A 
ATOM     23  C   UNL     1     -32.322 -10.369  15.596  0.00  0.00    +0.000 A 
ATOM     24  C   UNL     1     -33.443 -10.790  16.314  0.00  0.00    +0.000 A 
ATOM     25  C   UNL     1     -33.468 -12.067  16.884  0.00  0.00    +0.000 A 
ATOM     26  C   UNL     1     -32.372 -12.921  16.738  0.00  0.00    +0.004 A 
ENDBRANCH  19  21
ENDBRANCH  18  19
ENDBRANCH  16  18
ENDBRANCH   1  16
TORSDOF 5
ENDMDL
MODEL 5
REMARK VINA RESULT:    -5.442      2.644      6.079
REMARK INTER + INTRA:          -8.456
REMARK INTER:                  -5.630
REMARK INTRA:                  -2.826
REMARK UNBOUND:                -1.423
REMARK  Name = 
REMARK  7 active torsions:
REMARK  status: ('A' for Active; 'I' for Inactive)
REMARK    1  A    between atoms: C_1  and  C_2
REMARK    2  A    between atoms: C_9  and  S_13
REMARK    3  A    between atoms: S_13  and  N_16
REMARK    4  A    between atoms: N_16  and  C_17
REMARK    5  A    between atoms: C_17  and  C_18
REMARK    6  A    between atoms: C_18  and  C_19
REMARK    7  A    between atoms: C_18  and  C_20
REMARK                            x       y       z     vdW  Elec       q    Type
REMARK                         _______ _______ _______ _____ _____    ______ ____
ROOT
ATOM      1  S   UNL     1     -30.720  -9.092  20.111  0.00  0.00    +0.058 S 
ATOM      2  O   UNL     1     -30.190  -7.710  19.851  0.00  0.00    -0.153 OA
ATOM      3  O   UNL     1     -31.792  -9.020  21.165  0.00  0.00    -0.153 OA
ENDROOT
BRANCH   1  12
ATOM      4  C   UNL     1     -33.667 -11.860  12.712  0.00  0.00    +0.109 C 
ATOM      5  C   UNL     1     -32.717 -11.611  13.843  0.00  0.00    +0.217 C 
ATOM      6  O   UNL     1     -31.482 -11.757  13.642  0.00  0.00    -0.276 OA
ATOM      7  N   UNL     1     -33.209 -11.257  15.148  0.00  0.00    -0.271 N 
ATOM      8  C   UNL     1     -34.595 -11.457  15.582  0.00  0.00    +0.118 C 
ATOM      9  C   UNL     1     -34.641 -11.067  17.078  0.00  0.00    +0.056 C 
ATOM     10  C   UNL     1     -33.247 -10.635  17.364  0.00  0.00    -0.023 A 
ATOM     11  C   UNL     1     -32.741 -10.132  18.565  0.00  0.00    +0.034 A 
ATOM     12  C   UNL     1     -31.392  -9.737  18.618  0.00  0.00    +0.106 A 
ATOM     13  C   UNL     1     -30.589  -9.835  17.462  0.00  0.00    +0.030 A 
ATOM     14  C   UNL     1     -31.121 -10.343  16.266  0.00  0.00    +0.026 A 
ATOM     15  C   UNL     1     -32.462 -10.754  16.249  0.00  0.00    +0.040 A 
ENDBRANCH   1  12
BRANCH   1  16
ATOM     16  N   UNL     1     -29.425 -10.104  20.683  0.00  0.00    -0.189 NA
ATOM     17  H   UNL     1     -29.128  -9.731  21.614  0.00  0.00    +0.148 HD
BRANCH  16  18
ATOM     18  C   UNL     1     -29.843 -11.518  20.763  0.00  0.00    +0.113 C 
BRANCH  18  19
ATOM     19  C   UNL     1     -28.849 -12.477  20.065  0.00  0.00    +0.031 C 
ATOM     20  C   UNL     1     -28.356 -13.578  21.018  0.00  0.00    +0.014 C 
BRANCH  19  21
ATOM     21  C   UNL     1     -29.480 -13.091  18.827  0.00  0.00    -0.043 A 
ATOM     22  C   UNL     1     -30.811 -13.553  18.842  0.00  0.00    +0.004 A 
ATOM     23  C   UNL     1     -31.378 -14.117  17.696  0.00  0.00    +0.000 A 
ATOM     24  C   UNL     1     -30.627 -14.225  16.523  0.00  0.00    +0.000 A 
ATOM     25  C   UNL     1     -29.307 -13.767  16.495  0.00  0.00    +0.000 A 
ATOM     26  C   UNL     1     -28.736 -13.202  17.639  0.00  0.00    +0.004 A 
ENDBRANCH  19  21
ENDBRANCH  18  19
ENDBRANCH  16  18
ENDBRANCH   1  16
TORSDOF 5
ENDMDL
MODEL 6
REMARK VINA RESULT:    -5.251      3.617      5.724
REMARK INTER + INTRA:          -8.208
REMARK INTER:                  -5.604
REMARK INTRA:                  -2.604
REMARK UNBOUND:                -1.423
REMARK  Name = 
REMARK  7 active torsions:
REMARK  status: ('A' for Active; 'I' for Inactive)
REMARK    1  A    between atoms: C_1  and  C_2
REMARK    2  A    between atoms: C_9  and  S_13
REMARK    3  A    between atoms: S_13  and  N_16
REMARK    4  A    between atoms: N_16  and  C_17
REMARK    5  A    between atoms: C_17  and  C_18
REMARK    6  A    between atoms: C_18  and  C_19
REMARK    7  A    between atoms: C_18  and  C_20
REMARK                            x       y       z     vdW  Elec       q    Type
REMARK                         _______ _______ _______ _____ _____    ______ ____
ROOT
ATOM      1  S   UNL     1     -32.783 -12.591  13.009  0.00  0.00    +0.058 S 
ATOM      2  O   UNL     1     -34.208 -12.818  12.590  0.00  0.00    -0.153 OA
ATOM      3  O   UNL     1     -32.096 -11.732  11.981  0.00  0.00    -0.153 OA
ENDROOT
BRANCH   1  12
ATOM      4  C   UNL     1     -33.185  -8.600  20.427  0.00  0.00    +0.109 C 
ATOM      5  C   UNL     1     -33.403  -9.651  19.382  0.00  0.00    +0.217 C 
ATOM      6  O   UNL     1     -34.327 -10.490  19.547  0.00  0.00    -0.276 OA
ATOM      7  N   UNL     1     -32.541  -9.730  18.232  0.00  0.00    -0.271 N 
ATOM      8  C   UNL     1     -31.226  -9.086  18.149  0.00  0.00    +0.118 C 
ATOM      9  C   UNL     1     -30.604  -9.542  16.809  0.00  0.00    +0.056 C 
ATOM     10  C   UNL     1     -31.661 -10.403  16.213  0.00  0.00    -0.023 A 
ATOM     11  C   UNL     1     -31.641 -11.040  14.971  0.00  0.00    +0.034 A 
ATOM     12  C   UNL     1     -32.768 -11.779  14.572  0.00  0.00    +0.106 A 
ATOM     13  C   UNL     1     -33.896 -11.845  15.416  0.00  0.00    +0.030 A 
ATOM     14  C   UNL     1     -33.893 -11.195  16.661  0.00  0.00    +0.026 A 
ATOM     15  C   UNL     1     -32.746 -10.487  17.045  0.00  0.00    +0.040 A 
ENDBRANCH   1  12
BRANCH   1  16
ATOM     16  N   UNL     1     -31.964 -14.123  13.111  0.00  0.00    -0.189 NA
ATOM     17  H   UNL     1     -32.258 -14.687  12.281  0.00  0.00    +0.148 HD
BRANCH  16  18
ATOM     18  C   UNL     1     -30.500 -13.947  13.168  0.00  0.00    +0.113 C 
BRANCH  18  19
ATOM     19  C   UNL     1     -29.820 -14.899  14.181  0.00  0.00    +0.031 C 
ATOM     20  C   UNL     1     -28.319 -15.062  13.891  0.00  0.00    +0.014 C 
BRANCH  19  21
ATOM     21  C   UNL     1     -30.034 -14.408  15.602  0.00  0.00    -0.043 A 
ATOM     22  C   UNL     1     -29.050 -13.649  16.266  0.00  0.00    +0.004 A 
ATOM     23  C   UNL     1     -29.261 -13.205  17.575  0.00  0.00    +0.000 A 
ATOM     24  C   UNL     1     -30.453 -13.510  18.234  0.00  0.00    +0.000 A 
ATOM     25  C   UNL     1     -31.439 -14.259  17.585  0.00  0.00    +0.000 A 
ATOM     26  C   UNL     1     -31.233 -14.705  16.277  0.00  0.00    +0.004 A 
ENDBRANCH  19  21
ENDBRANCH  18  19
ENDBRANCH  16  18
ENDBRANCH   1  16
TORSDOF 5
ENDMDL
MODEL 7
REMARK VINA RESULT:    -5.010      3.247      6.462
REMARK INTER + INTRA:          -7.897
REMARK INTER:                  -5.062
REMARK INTRA:                  -2.835
REMARK UNBOUND:                -1.423
REMARK  Name = 
REMARK  7 active torsions:
REMARK  status: ('A' for Active; 'I' for Inactive)
REMARK    1  A    between atoms: C_1  and  C_2
REMARK    2  A    between atoms: C_9  and  S_13
REMARK    3  A    between atoms: S_13  and  N_16
REMARK    4  A    between atoms: N_16  and  C_17
REMARK    5  A    between atoms: C_17  and  C_18
REMARK    6  A    between atoms: C_18  and  C_19
REMARK    7  A    between atoms: C_18  and  C_20
REMARK                            x       y       z     vdW  Elec       q    Type
REMARK                         _______ _______ _______ _____ _____    ______ ____
ROOT
ATOM      1  S   UNL     1     -31.651  -7.885  19.790  0.00  0.00    +0.058 S 
ATOM      2  O   UNL     1     -30.184  -7.858  20.116  0.00  0.00    -0.153 OA
ATOM      3  O   UNL     1     -32.103  -6.495  19.430  0.00  0.00    -0.153 OA
ENDROOT
BRANCH   1  12
ATOM      4  C   UNL     1     -32.555 -12.851  13.035  0.00  0.00    +0.109 C 
ATOM      5  C   UNL     1     -31.957 -12.256  14.273  0.00  0.00    +0.217 C 
ATOM      6  O   UNL     1     -30.738 -12.455  14.515  0.00  0.00    -0.276 OA
ATOM      7  N   UNL     1     -32.774 -11.509  15.194  0.00  0.00    -0.271 N 
ATOM      8  C   UNL     1     -34.239 -11.565  15.220  0.00  0.00    +0.118 C 
ATOM      9  C   UNL     1     -34.682 -10.724  16.439  0.00  0.00    +0.056 C 
ATOM     10  C   UNL     1     -33.398 -10.220  16.997  0.00  0.00    -0.023 A 
ATOM     11  C   UNL     1     -33.221  -9.364  18.085  0.00  0.00    +0.034 A 
ATOM     12  C   UNL     1     -31.915  -8.970  18.428  0.00  0.00    +0.106 A 
ATOM     13  C   UNL     1     -30.822  -9.425  17.661  0.00  0.00    +0.030 A 
ATOM     14  C   UNL     1     -31.027 -10.285  16.570  0.00  0.00    +0.026 A 
ATOM     15  C   UNL     1     -32.337 -10.683  16.267  0.00  0.00    +0.040 A 
ENDBRANCH   1  12
BRANCH   1  16
ATOM     16  N   UNL     1     -32.538  -8.430  21.184  0.00  0.00    -0.189 NA
ATOM     17  H   UNL     1     -33.376  -8.950  20.834  0.00  0.00    +0.148 HD
BRANCH  16  18
ATOM     18  C   UNL     1     -31.698  -9.268  22.062  0.00  0.00    +0.113 C 
BRANCH  18  19
ATOM     19  C   UNL     1     -32.069 -10.768  21.995  0.00  0.00    +0.031 C 
ATOM     20  C   UNL     1     -33.543 -10.974  21.608  0.00  0.00    +0.014 C 
BRANCH  19  21
ATOM     21  C   UNL     1     -31.160 -11.500  21.022  0.00  0.00    -0.043 A 
ATOM     22  C   UNL     1     -31.679 -12.429  20.099  0.00  0.00    +0.004 A 
ATOM     23  C   UNL     1     -30.829 -13.096  19.212  0.00  0.00    +0.000 A 
ATOM     24  C   UNL     1     -29.456 -12.843  19.232  0.00  0.00    +0.000 A 
ATOM     25  C   UNL     1     -28.930 -11.920  20.141  0.00  0.00    +0.000 A 
ATOM     26  C   UNL     1     -29.775 -11.251  21.030  0.00  0.00    +0.004 A 
ENDBRANCH  19  21
ENDBRANCH  18  19
ENDBRANCH  16  18
ENDBRANCH   1  16
TORSDOF 5
ENDMDL
MODEL 8
REMARK VINA RESULT:    -4.924      2.183      3.214
REMARK INTER + INTRA:          -7.786
REMARK INTER:                  -7.391
REMARK INTRA:                  -0.395
REMARK UNBOUND:                -1.423
REMARK  Name = 
REMARK  7 active torsions:
REMARK  status: ('A' for Active; 'I' for Inactive)
REMARK    1  A    between atoms: C_1  and  C_2
REMARK    2  A    between atoms: C_9  and  S_13
REMARK    3  A    between atoms: S_13  and  N_16
REMARK    4  A    between atoms: N_16  and  C_17
REMARK    5  A    between atoms: C_17  and  C_18
REMARK    6  A    between atoms: C_18  and  C_19
REMARK    7  A    between atoms: C_18  and  C_20
REMARK                            x       y       z     vdW  Elec       q    Type
REMARK                         _______ _______ _______ _____ _____    ______ ____
ROOT
ATOM      1  S   UNL     1     -32.241  -9.015  18.499  0.00  0.00    +0.058 S 
ATOM      2  O   UNL     1     -33.580  -9.417  19.049  0.00  0.00    -0.153 OA
ATOM      3  O   UNL     1     -31.910  -7.624  18.970  0.00  0.00    -0.153 OA
ENDROOT
BRANCH   1  12
ATOM      4  C   UNL     1     -26.527 -14.317  21.716  0.00  0.00    +0.109 C 
ATOM      5  C   UNL     1     -27.859 -13.747  21.334  0.00  0.00    +0.217 C 
ATOM      6  O   UNL     1     -28.894 -14.187  21.901  0.00  0.00    -0.276 OA
ATOM      7  N   UNL     1     -27.960 -12.747  20.304  0.00  0.00    -0.271 N 
ATOM      8  C   UNL     1     -26.903 -12.471  19.325  0.00  0.00    +0.118 C 
ATOM      9  C   UNL     1     -27.486 -11.432  18.340  0.00  0.00    +0.056 C 
ATOM     10  C   UNL     1     -28.849 -11.174  18.877  0.00  0.00    -0.023 A 
ATOM     11  C   UNL     1     -29.798 -10.272  18.392  0.00  0.00    +0.034 A 
ATOM     12  C   UNL     1     -31.021 -10.147  19.075  0.00  0.00    +0.106 A 
ATOM     13  C   UNL     1     -31.255 -10.910  20.238  0.00  0.00    +0.030 A 
ATOM     14  C   UNL     1     -30.284 -11.810  20.706  0.00  0.00    +0.026 A 
ATOM     15  C   UNL     1     -29.084 -11.934  19.991  0.00  0.00    +0.040 A 
ENDBRANCH   1  12
BRANCH   1  16
ATOM     16  N   UNL     1     -32.308  -9.026  16.760  0.00  0.00    -0.189 NA
ATOM     17  H   UNL     1     -31.428  -8.581  16.413  0.00  0.00    +0.148 HD
BRANCH  16  18
ATOM     18  C   UNL     1     -32.475 -10.397  16.237  0.00  0.00    +0.113 C 
BRANCH  18  19
ATOM     19  C   UNL     1     -33.708 -10.540  15.312  0.00  0.00    +0.031 C 
ATOM     20  C   UNL     1     -34.221  -9.173  14.832  0.00  0.00    +0.014 C 
BRANCH  19  21
ATOM     21  C   UNL     1     -33.384 -11.431  14.125  0.00  0.00    -0.043 A 
ATOM     22  C   UNL     1     -34.322 -11.640  13.095  0.00  0.00    +0.004 A 
ATOM     23  C   UNL     1     -34.010 -12.464  12.010  0.00  0.00    +0.000 A 
ATOM     24  C   UNL     1     -32.762 -13.085  11.938  0.00  0.00    +0.000 A 
ATOM     25  C   UNL     1     -31.820 -12.882  12.951  0.00  0.00    +0.000 A 
ATOM     26  C   UNL     1     -32.128 -12.059  14.038  0.00  0.00    +0.004 A 
ENDBRANCH  19  21
ENDBRANCH  18  19
ENDBRANCH  16  18
ENDBRANCH   1  16
TORSDOF 5
ENDMDL
