MODEL 1
REMARK VINA RESULT:    -6.223      0.000      0.000
REMARK INTER + INTRA:          -9.361
REMARK INTER:                  -8.223
REMARK INTRA:                  -1.138
REMARK UNBOUND:                -1.138
REMARK  Name = 
REMARK  6 active torsions:
REMARK  status: ('A' for Active; 'I' for Inactive)
REMARK    1  A    between atoms: C_2  and  O_3
REMARK    2  A    between atoms: C_2  and  C_4
REMARK    3  A    between atoms: C_4  and  C_5
REMARK    4  A    between atoms: C_5  and  C_19
REMARK    5  A    between atoms: C_6  and  C_7
REMARK    6  A    between atoms: C_10  and  C_13
REMARK                            x       y       z     vdW  Elec       q    Type
REMARK                         _______ _______ _______ _____ _____    ______ ____
ROOT
ATOM      1  C   UNL     1     -31.594  -8.670  19.896  0.00  0.00    -0.004 C 
ATOM      2  C   UNL     1     -32.213  -8.385  18.731  0.00  0.00    +0.014 C 
ENDROOT
BRANCH   1   3
ATOM      3  C   UNL     1     -30.729  -9.859  20.074  0.00  0.00    +0.106 A 
ATOM      4  N   UNL     1     -29.595 -10.056  19.357  0.00  0.00    -0.239 NA
ATOM      5  C   UNL     1     -29.029 -11.255  19.653  0.00  0.00    +0.079 A 
ATOM      6  C   UNL     1     -27.847 -11.730  19.082  0.00  0.00    +0.029 A 
ATOM      7  C   UNL     1     -27.372 -12.995  19.470  0.00  0.00    +0.002 A 
ATOM      8  C   UNL     1     -28.079 -13.764  20.416  0.00  0.00    +0.001 A 
ATOM      9  C   UNL     1     -29.267 -13.275  20.982  0.00  0.00    +0.017 A 
ATOM     10  C   UNL     1     -29.715 -12.019  20.582  0.00  0.00    +0.040 A 
ATOM     11  S   UNL     1     -31.088 -11.190  21.068  0.00  0.00    -0.067 S 
ENDBRANCH   1   3
BRANCH   2  12
ATOM     12  C   UNL     1     -32.331  -9.310  17.583  0.00  0.00    -0.025 A 
ATOM     13  C   UNL     1     -31.237  -9.481  16.725  0.00  0.00    +0.008 A 
ATOM     14  C   UNL     1     -31.332 -10.327  15.617  0.00  0.00    +0.009 A 
ATOM     15  C   UNL     1     -32.533 -11.005  15.335  0.00  0.00    -0.018 A 
ATOM     16  C   UNL     1     -33.638 -10.807  16.182  0.00  0.00    +0.009 A 
ATOM     17  C   UNL     1     -33.542  -9.959  17.288  0.00  0.00    +0.008 A 
BRANCH  15  18
ATOM     18  C   UNL     1     -32.634 -11.907  14.160  0.00  0.00    -0.018 A 
ATOM     19  C   UNL     1     -31.551 -12.729  13.795  0.00  0.00    +0.008 A 
ATOM     20  C   UNL     1     -31.649 -13.580  12.690  0.00  0.00    +0.001 A 
ATOM     21  C   UNL     1     -32.825 -13.621  11.938  0.00  0.00    +0.000 A 
ATOM     22  C   UNL     1     -33.907 -12.809  12.291  0.00  0.00    +0.001 A 
ATOM     23  C   UNL     1     -33.814 -11.956  13.395  0.00  0.00    +0.008 A 
ENDBRANCH  15  18
ENDBRANCH   2  12
BRANCH   1  24
ATOM     24  C   UNL     1     -31.670  -7.676  21.026  0.00  0.00    +0.158 C 
BRANCH  24  26
ATOM     25  O   UNL     1     -31.301  -5.421  20.324  0.00  0.00    -0.251 OA
ATOM     26  C   UNL     1     -30.794  -6.498  20.734  0.00  0.00    +0.309 C 
BRANCH  26  27
ATOM     27  O   UNL     1     -29.414  -6.609  20.874  0.00  0.00    -0.480 OA
ATOM     28  H   UNL     1     -28.805  -5.838  20.632  0.00  0.00    +0.295 HD
ENDBRANCH  26  27
ENDBRANCH  24  26
ENDBRANCH   1  24
TORSDOF 6
ENDMDL