MODEL 1
REMARK VINA RESULT:    -4.592      0.000      0.000
REMARK INTER + INTRA:          -6.863
REMARK INTER:                  -6.337
REMARK INTRA:                  -0.525
REMARK UNBOUND:                -0.525
REMARK  Name = 
REMARK  9 active torsions:
REMARK  status: ('A' for Active; 'I' for Inactive)
REMARK    1  A    between atoms: C_1  and  C_2
REMARK    2  A    between atoms: C_2  and  C_3
REMARK    3  A    between atoms: N_5  and  S_13
REMARK    4  A    between atoms: N_8  and  C_9
REMARK    5  A    between atoms: C_9  and  C_10
REMARK    6  A    between atoms: C_10  and  C_11
REMARK    7  A    between atoms: C_10  and  O_12
REMARK    8  A    between atoms: S_13  and  C_16
REMARK    9  A    between atoms: C_19  and  C_21
REMARK                            x       y       z     vdW  Elec       q    Type
REMARK                         _______ _______ _______ _____ _____    ______ ____
ATOM      1  S   UNL     1     -30.593  -9.639  19.573  0.00  0.00    +0.062 S 
ATOM      2  O   UNL     1     -29.412  -9.472  18.659  0.00  0.00    -0.153 OA
ATOM      3  O   UNL     1     -30.492  -8.635  20.687  0.00  0.00    -0.153 OA
ENDROOT
BRANCH   1   6
ATOM      4  C   UNL     1     -28.505 -12.369  19.357  0.00  0.00    +0.072 C 
ATOM      5  C   UNL     1     -29.260 -11.743  20.565  0.00  0.00    +0.128 C 
ATOM      6  N   UNL     1     -30.614 -11.264  20.220  0.00  0.00    -0.174 NA
ATOM      7  C   UNL     1     -31.396 -12.184  19.365  0.00  0.00    +0.125 C 
ATOM      8  C   UNL     1     -30.689 -13.524  19.135  0.00  0.00    +0.102 C 
ATOM      9  N   UNL     1     -29.343 -13.318  18.563  0.00  0.00    -0.294 NA
BRANCH   4  11
ATOM     10  C   UNL     1     -27.503 -13.954  21.105  0.00  0.00    +0.005 C 
ATOM     11  C   UNL     1     -27.249 -13.126  19.844  0.00  0.00    +0.017 C 
ENDBRANCH   4  11
BRANCH   9  12
ATOM     12  C   UNL     1     -29.406 -12.978  17.118  0.00  0.00    +0.115 C 
BRANCH  12  13
ATOM     13  C   UNL     1     -29.393 -14.244  16.241  0.00  0.00    +0.125 C 
ATOM     14  C   UNL     1     -30.145 -14.002  14.928  0.00  0.00    +0.039 C 
BRANCH  13  15
ATOM     15  O   UNL     1     -28.068 -14.610  15.949  0.00  0.00    -0.391 OA
ATOM     16  H   UNL     1     -27.708 -13.919  15.332  0.00  0.00    +0.210 HD
ENDBRANCH  13  15
ENDBRANCH  12  13
ENDBRANCH   9  12
ENDBRANCH   1   6
BRANCH   1  17
ATOM     17  C   UNL     1     -32.057  -9.341  18.653  0.00  0.00    +0.123 A 
ATOM     18  C   UNL     1     -33.338  -9.253  19.154  0.00  0.00    +0.112 A 
ATOM     19  N   UNL     1     -34.207  -9.086  18.140  0.00  0.00    -0.355 N 
ATOM     20  C   UNL     1     -33.485  -9.084  17.001  0.00  0.00    +0.104 A 
ATOM     21  C   UNL     1     -32.139  -9.225  17.281  0.00  0.00    +0.060 A 
ATOM     22  H   UNL     1     -35.237  -8.945  18.235  0.00  0.00    +0.166 HD
BRANCH  20  23
ATOM     23  C   UNL     1     -34.052  -8.911  15.653  0.00  0.00    +0.263 C 
ATOM     24  O   UNL     1     -34.318  -7.746  15.254  0.00  0.00    -0.268 OA
ATOM     25  N   UNL     1     -34.278 -10.032  14.779  0.00  0.00    -0.296 N 
ATOM     26  C   UNL     1     -35.062  -9.923  13.559  0.00  0.00    +0.108 C 
ATOM     27  C   UNL     1     -34.686 -11.132  12.713  0.00  0.00    +0.020 C 
ATOM     28  C   UNL     1     -33.992 -12.106  13.659  0.00  0.00    +0.020 C 
ATOM     29  C   UNL     1     -33.521 -11.272  14.843  0.00  0.00    +0.108 C 
ENDBRANCH  20  23
ENDBRANCH   1  17
TORSDOF 7
ENDMDL
MODEL 2
REMARK VINA RESULT:    -4.412      2.376      6.516
REMARK INTER + INTRA:          -6.613
REMARK INTER:                  -5.944
REMARK INTRA:                  -0.669
REMARK UNBOUND:                -0.525
REMARK  Name = 
REMARK  9 active torsions:
REMARK  status: ('A' for Active; 'I' for Inactive)
REMARK    1  A    between atoms: C_1  and  C_2
REMARK    2  A    between atoms: C_2  and  C_3
REMARK    3  A    between atoms: N_5  and  S_13
REMARK    4  A    between atoms: N_8  and  C_9
REMARK    5  A    between atoms: C_9  and  C_10
REMARK    6  A    between atoms: C_10  and  C_11
REMARK    7  A    between atoms: C_10  and  O_12
REMARK    8  A    between atoms: S_13  and  C_16
REMARK    9  A    between atoms: C_19  and  C_21
REMARK                            x       y       z     vdW  Elec       q    Type
REMARK                         _______ _______ _______ _____ _____    ______ ____
ROOT
ATOM      1  S   UNL     1     -31.890  -9.525  17.640  0.00  0.00    +0.062 S 
ATOM      2  O   UNL     1     -32.450  -8.276  18.260  0.00  0.00    -0.153 OA
ATOM      3  O   UNL     1     -31.353  -9.191  16.276  0.00  0.00    -0.153 OA
ENDROOT
BRANCH   1   6
ATOM      4  C   UNL     1     -32.113 -12.661  16.235  0.00  0.00    +0.072 C 
ATOM      5  C   UNL     1     -32.604 -12.109  17.604  0.00  0.00    +0.128 C 
ATOM      6  N   UNL     1     -33.145 -10.737  17.518  0.00  0.00    -0.174 NA
ATOM      7  C   UNL     1     -34.031 -10.493  16.358  0.00  0.00    +0.125 C 
ATOM      8  C   UNL     1     -34.326 -11.768  15.560  0.00  0.00    +0.102 C 
ATOM      9  N   UNL     1     -33.074 -12.416  15.118  0.00  0.00    -0.294 NA
BRANCH   4  11
ATOM     10  C   UNL     1     -30.959 -14.567  17.504  0.00  0.00    +0.005 C 
ATOM     11  C   UNL     1     -31.862 -14.183  16.330  0.00  0.00    +0.017 C 
ENDBRANCH   4  11
BRANCH   9  12
ATOM     12  C   UNL     1     -32.466 -11.703  13.965  0.00  0.00    +0.115 C 
BRANCH  12  13
ATOM     13  C   UNL     1     -32.600 -12.520  12.665  0.00  0.00    +0.125 C 
ATOM     14  C   UNL     1     -31.479 -13.559  12.560  0.00  0.00    +0.039 C 
BRANCH  13  15
ATOM     15  O   UNL     1     -33.840 -13.179  12.642  0.00  0.00    -0.391 OA
ATOM     16  H   UNL     1     -33.906 -13.636  11.761  0.00  0.00    +0.210 HD
ENDBRANCH  13  15
ENDBRANCH  12  13
ENDBRANCH   9  12
ENDBRANCH   1   6
BRANCH   1  17
ATOM     17  C   UNL     1     -30.584 -10.113  18.651  0.00  0.00    +0.123 A 
ATOM     18  C   UNL     1     -30.372  -9.808  19.980  0.00  0.00    +0.112 A 
ATOM     19  N   UNL     1     -29.233 -10.389  20.399  0.00  0.00    -0.355 N 
ATOM     20  C   UNL     1     -28.716 -11.046  19.340  0.00  0.00    +0.104 A 
ATOM     21  C   UNL     1     -29.537 -10.910  18.237  0.00  0.00    +0.060 A 
ATOM     22  H   UNL     1     -28.856 -10.363  21.371  0.00  0.00    +0.166 HD
BRANCH  20  23
ATOM     23  C   UNL     1     -27.472 -11.832  19.372  0.00  0.00    +0.263 C 
ATOM     24  O   UNL     1     -26.500 -11.456  18.664  0.00  0.00    -0.268 OA
ATOM     25  N   UNL     1     -27.334 -12.996  20.209  0.00  0.00    -0.296 N 
ATOM     26  C   UNL     1     -26.225 -13.927  20.072  0.00  0.00    +0.108 C 
ATOM     27  C   UNL     1     -26.175 -14.709  21.378  0.00  0.00    +0.020 C 
ATOM     28  C   UNL     1     -27.517 -14.469  22.062  0.00  0.00    +0.020 C 
ATOM     29  C   UNL     1     -28.077 -13.196  21.443  0.00  0.00    +0.108 C 
ENDBRANCH  20  23
ENDBRANCH   1  17
TORSDOF 7
ENDMDL
MODEL 3
REMARK VINA RESULT:    -4.382      2.245      2.747
REMARK INTER + INTRA:          -6.572
REMARK INTER:                  -5.504
REMARK INTRA:                  -1.068
REMARK UNBOUND:                -0.525
REMARK  Name = 
REMARK  9 active torsions:
REMARK  status: ('A' for Active; 'I' for Inactive)
REMARK    1  A    between atoms: C_1  and  C_2
REMARK    2  A    between atoms: C_2  and  C_3
REMARK    3  A    between atoms: N_5  and  S_13
REMARK    4  A    between atoms: N_8  and  C_9
REMARK    5  A    between atoms: C_9  and  C_10
REMARK    6  A    between atoms: C_10  and  C_11
REMARK    7  A    between atoms: C_10  and  O_12
REMARK    8  A    between atoms: S_13  and  C_16
REMARK    9  A    between atoms: C_19  and  C_21
REMARK                            x       y       z     vdW  Elec       q    Type
REMARK                         _______ _______ _______ _____ _____    ______ ____
ROOT
ATOM      1  S   UNL     1     -33.069  -9.954  20.358  0.00  0.00    +0.062 S 
ATOM      2  O   UNL     1     -33.942  -9.078  21.211  0.00  0.00    -0.153 OA
ATOM      3  O   UNL     1     -33.507 -11.383  20.523  0.00  0.00    -0.153 OA
ENDROOT
BRANCH   1   6
ATOM      4  C   UNL     1     -30.031 -10.799  18.974  0.00  0.00    +0.072 C 
ATOM      5  C   UNL     1     -30.511  -9.505  19.690  0.00  0.00    +0.128 C 
ATOM      6  N   UNL     1     -31.398  -9.771  20.842  0.00  0.00    -0.174 NA
ATOM      7  C   UNL     1     -30.958 -10.879  21.718  0.00  0.00    +0.125 C 
ATOM      8  C   UNL     1     -29.580 -11.428  21.331  0.00  0.00    +0.102 C 
ATOM      9  N   UNL     1     -29.563 -11.859  19.918  0.00  0.00    -0.294 NA
BRANCH   4  11
ATOM     10  C   UNL     1     -27.636 -11.341  18.236  0.00  0.00    +0.005 C 
ATOM     11  C   UNL     1     -28.876 -10.476  18.001  0.00  0.00    +0.017 C 
ENDBRANCH   4  11
BRANCH   9  12
ATOM     12  C   UNL     1     -30.256 -13.160  19.732  0.00  0.00    +0.115 C 
BRANCH  12  13
ATOM     13  C   UNL     1     -31.160 -13.142  18.485  0.00  0.00    +0.125 C 
ATOM     14  C   UNL     1     -30.856 -14.340  17.579  0.00  0.00    +0.039 C 
BRANCH  13  15
ATOM     15  O   UNL     1     -32.509 -13.191  18.872  0.00  0.00    -0.391 OA
ATOM     16  H   UNL     1     -32.920 -13.956  18.389  0.00  0.00    +0.210 HD
ENDBRANCH  13  15
ENDBRANCH  12  13
ENDBRANCH   9  12
ENDBRANCH   1   6
BRANCH   1  17
ATOM     17  C   UNL     1     -33.265  -9.476  18.682  0.00  0.00    +0.123 A 
ATOM     18  C   UNL     1     -33.108  -8.206  18.167  0.00  0.00    +0.112 A 
ATOM     19  N   UNL     1     -33.409  -8.214  16.855  0.00  0.00    -0.355 N 
ATOM     20  C   UNL     1     -33.769  -9.475  16.542  0.00  0.00    +0.104 A 
ATOM     21  C   UNL     1     -33.677 -10.294  17.652  0.00  0.00    +0.060 A 
ATOM     22  H   UNL     1     -33.332  -7.400  16.207  0.00  0.00    +0.166 HD
BRANCH  20  23
ATOM     23  C   UNL     1     -34.162  -9.922  15.196  0.00  0.00    +0.263 C 
ATOM     24  O   UNL     1     -35.062  -9.285  14.586  0.00  0.00    -0.268 OA
ATOM     25  N   UNL     1     -33.526 -11.044  14.556  0.00  0.00    -0.296 N 
ATOM     26  C   UNL     1     -34.059 -11.658  13.350  0.00  0.00    +0.108 C 
ATOM     27  C   UNL     1     -32.909 -12.452  12.744  0.00  0.00    +0.020 C 
ATOM     28  C   UNL     1     -31.864 -12.585  13.847  0.00  0.00    +0.020 C 
ATOM     29  C   UNL     1     -32.166 -11.472  14.842  0.00  0.00    +0.108 C 
ENDBRANCH  20  23
ENDBRANCH   1  17
TORSDOF 7
ENDMDL
MODEL 4
REMARK VINA RESULT:    -4.219      2.456      7.617
REMARK INTER + INTRA:          -6.347
REMARK INTER:                  -5.000
REMARK INTRA:                  -1.347
REMARK UNBOUND:                -0.525
REMARK  Name = 
REMARK  9 active torsions:
REMARK  status: ('A' for Active; 'I' for Inactive)
REMARK    1  A    between atoms: C_1  and  C_2
REMARK    2  A    between atoms: C_2  and  C_3
REMARK    3  A    between atoms: N_5  and  S_13
REMARK    4  A    between atoms: N_8  and  C_9
REMARK    5  A    between atoms: C_9  and  C_10
REMARK    6  A    between atoms: C_10  and  C_11
REMARK    7  A    between atoms: C_10  and  O_12
REMARK    8  A    between atoms: S_13  and  C_16
REMARK    9  A    between atoms: C_19  and  C_21
REMARK                            x       y       z     vdW  Elec       q    Type
REMARK                         _______ _______ _______ _____ _____    ______ ____
ROOT
ATOM      1  S   UNL     1     -31.162 -10.364  17.099  0.00  0.00    +0.062 S 
ATOM      2  O   UNL     1     -32.169  -9.472  17.767  0.00  0.00    -0.153 OA
ATOM      3  O   UNL     1     -30.544  -9.622  15.946  0.00  0.00    -0.153 OA
ENDROOT
BRANCH   1   6
ATOM      4  C   UNL     1     -33.011 -11.204  14.317  0.00  0.00    +0.072 C 
ATOM      5  C   UNL     1     -31.873 -11.958  15.063  0.00  0.00    +0.128 C 
ATOM      6  N   UNL     1     -31.948 -11.820  16.532  0.00  0.00    -0.174 NA
ATOM      7  C   UNL     1     -33.308 -11.964  17.098  0.00  0.00    +0.125 C 
ATOM      8  C   UNL     1     -34.345 -12.379  16.048  0.00  0.00    +0.102 C 
ATOM      9  N   UNL     1     -34.361 -11.427  14.918  0.00  0.00    -0.294 NA
BRANCH   4  11
ATOM     10  C   UNL     1     -32.672 -13.106  12.633  0.00  0.00    +0.005 C 
ATOM     11  C   UNL     1     -33.064 -11.642  12.837  0.00  0.00    +0.017 C 
ENDBRANCH   4  11
BRANCH   9  12
ATOM     12  C   UNL     1     -35.062 -10.166  15.273  0.00  0.00    +0.115 C 
BRANCH  12  13
ATOM     13  C   UNL     1     -34.219  -8.930  14.904  0.00  0.00    +0.125 C 
ATOM     14  C   UNL     1     -35.042  -7.943  14.069  0.00  0.00    +0.039 C 
BRANCH  13  15
ATOM     15  O   UNL     1     -33.777  -8.286  16.071  0.00  0.00    -0.391 OA
ATOM     16  H   UNL     1     -34.572  -7.849  16.477  0.00  0.00    +0.210 HD
ENDBRANCH  13  15
ENDBRANCH  12  13
ENDBRANCH   9  12
ENDBRANCH   1   6
BRANCH   1  17
ATOM     17  C   UNL     1     -29.916 -10.770  18.265  0.00  0.00    +0.123 A 
ATOM     18  C   UNL     1     -29.857 -10.361  19.580  0.00  0.00    +0.112 A 
ATOM     19  N   UNL     1     -28.720 -10.813  20.141  0.00  0.00    -0.355 N 
ATOM     20  C   UNL     1     -28.054 -11.492  19.185  0.00  0.00    +0.104 A 
ATOM     21  C   UNL     1     -28.775 -11.501  18.005  0.00  0.00    +0.060 A 
ATOM     22  H   UNL     1     -28.441 -10.691  21.139  0.00  0.00    +0.166 HD
BRANCH  20  23
ATOM     23  C   UNL     1     -26.760 -12.166  19.386  0.00  0.00    +0.263 C 
ATOM     24  O   UNL     1     -25.741 -11.701  18.810  0.00  0.00    -0.268 OA
ATOM     25  N   UNL     1     -26.633 -13.317  20.241  0.00  0.00    -0.296 N 
ATOM     26  C   UNL     1     -25.437 -14.146  20.258  0.00  0.00    +0.108 C 
ATOM     27  C   UNL     1     -25.492 -14.928  21.563  0.00  0.00    +0.020 C 
ATOM     28  C   UNL     1     -26.928 -14.811  22.062  0.00  0.00    +0.020 C 
ATOM     29  C   UNL     1     -27.512 -13.589  21.366  0.00  0.00    +0.108 C 
ENDBRANCH  20  23
ENDBRANCH   1  17
TORSDOF 7
ENDMDL
MODEL 5
REMARK VINA RESULT:    -4.122      2.622      6.250
REMARK INTER + INTRA:          -6.213
REMARK INTER:                  -4.953
REMARK INTRA:                  -1.260
REMARK UNBOUND:                -0.525
REMARK  Name = 
REMARK  9 active torsions:
REMARK  status: ('A' for Active; 'I' for Inactive)
REMARK    1  A    between atoms: C_1  and  C_2
REMARK    2  A    between atoms: C_2  and  C_3
REMARK    3  A    between atoms: N_5  and  S_13
REMARK    4  A    between atoms: N_8  and  C_9
REMARK    5  A    between atoms: C_9  and  C_10
REMARK    6  A    between atoms: C_10  and  C_11
REMARK    7  A    between atoms: C_10  and  O_12
REMARK    8  A    between atoms: S_13  and  C_16
REMARK    9  A    between atoms: C_19  and  C_21
REMARK                            x       y       z     vdW  Elec       q    Type
REMARK                         _______ _______ _______ _____ _____    ______ ____
ROOT
ATOM      1  S   UNL     1     -30.442 -10.598  19.492  0.00  0.00    +0.062 S 
ATOM      2  O   UNL     1     -29.439 -10.495  20.605  0.00  0.00    -0.153 OA
ATOM      3  O   UNL     1     -30.282  -9.412  18.582  0.00  0.00    -0.153 OA
ENDROOT
BRANCH   1   6
ATOM      4  C   UNL     1     -32.981  -8.299  19.856  0.00  0.00    +0.072 C 
ATOM      5  C   UNL     1     -32.996  -9.785  19.397  0.00  0.00    +0.128 C 
ATOM      6  N   UNL     1     -32.060 -10.639  20.157  0.00  0.00    -0.174 NA
ATOM      7  C   UNL     1     -32.057 -10.405  21.618  0.00  0.00    +0.125 C 
ATOM      8  C   UNL     1     -33.145  -9.421  22.062  0.00  0.00    +0.102 C 
ATOM      9  N   UNL     1     -33.021  -8.138  21.341  0.00  0.00    -0.294 NA
BRANCH   4  11
ATOM     10  C   UNL     1     -34.617  -8.088  17.894  0.00  0.00    +0.005 C 
ATOM     11  C   UNL     1     -34.186  -7.541  19.256  0.00  0.00    +0.017 C 
ENDBRANCH   4  11
BRANCH   9  12
ATOM     12  C   UNL     1     -31.904  -7.315  21.873  0.00  0.00    +0.115 C 
BRANCH  12  13
ATOM     13  C   UNL     1     -30.983  -6.817  20.742  0.00  0.00    +0.125 C 
ATOM     14  C   UNL     1     -30.535  -5.375  21.004  0.00  0.00    +0.039 C 
BRANCH  13  15
ATOM     15  O   UNL     1     -29.849  -7.641  20.651  0.00  0.00    -0.391 OA
ATOM     16  H   UNL     1     -29.509  -7.561  19.722  0.00  0.00    +0.210 HD
ENDBRANCH  13  15
ENDBRANCH  12  13
ENDBRANCH   9  12
ENDBRANCH   1   6
BRANCH   1  17
ATOM     17  C   UNL     1     -30.127 -12.069  18.591  0.00  0.00    +0.123 A 
ATOM     18  C   UNL     1     -30.122 -13.354  19.092  0.00  0.00    +0.112 A 
ATOM     19  N   UNL     1     -29.771 -14.215  18.119  0.00  0.00    -0.355 N 
ATOM     20  C   UNL     1     -29.537 -13.481  17.011  0.00  0.00    +0.104 A 
ATOM     21  C   UNL     1     -29.764 -12.141  17.262  0.00  0.00    +0.060 A 
ATOM     22  H   UNL     1     -29.731 -15.254  18.207  0.00  0.00    +0.166 HD
BRANCH  20  23
ATOM     23  C   UNL     1     -29.140 -14.038  15.708  0.00  0.00    +0.263 C 
ATOM     24  O   UNL     1     -28.085 -14.724  15.640  0.00  0.00    -0.268 OA
ATOM     25  N   UNL     1     -29.939 -13.842  14.527  0.00  0.00    -0.296 N 
ATOM     26  C   UNL     1     -29.449 -14.157  13.194  0.00  0.00    +0.108 C 
ATOM     27  C   UNL     1     -30.685 -14.264  12.311  0.00  0.00    +0.020 C 
ATOM     28  C   UNL     1     -31.817 -13.608  13.094  0.00  0.00    +0.020 C 
ATOM     29  C   UNL     1     -31.375 -13.616  14.551  0.00  0.00    +0.108 C 
ENDBRANCH  20  23
ENDBRANCH   1  17
TORSDOF 7
ENDMDL
MODEL 6
REMARK VINA RESULT:    -4.112      2.576      4.983
REMARK INTER + INTRA:          -6.200
REMARK INTER:                  -5.668
REMARK INTRA:                  -0.532
REMARK UNBOUND:                -0.525
REMARK  Name = 
REMARK  9 active torsions:
REMARK  status: ('A' for Active; 'I' for Inactive)
REMARK    1  A    between atoms: C_1  and  C_2
REMARK    2  A    between atoms: C_2  and  C_3
REMARK    3  A    between atoms: N_5  and  S_13
REMARK    4  A    between atoms: N_8  and  C_9
REMARK    5  A    between atoms: C_9  and  C_10
REMARK    6  A    between atoms: C_10  and  C_11
REMARK    7  A    between atoms: C_10  and  O_12
REMARK    8  A    between atoms: S_13  and  C_16
REMARK    9  A    between atoms: C_19  and  C_21
REMARK                            x       y       z     vdW  Elec       q    Type
REMARK                         _______ _______ _______ _____ _____    ______ ____
ROOT
ATOM      1  S   UNL     1     -28.860 -12.889  19.326  0.00  0.00    +0.062 S 
ATOM      2  O   UNL     1     -29.219 -13.679  20.553  0.00  0.00    -0.153 OA
ATOM      3  O   UNL     1     -27.435 -13.190  18.954  0.00  0.00    -0.153 OA
ENDROOT
BRANCH   1   6
ATOM      4  C   UNL     1     -31.319 -10.950  20.760  0.00  0.00    +0.072 C 
ATOM      5  C   UNL     1     -29.771 -10.930  20.914  0.00  0.00    +0.128 C 
ATOM      6  N   UNL     1     -29.056 -11.181  19.645  0.00  0.00    -0.174 NA
ATOM      7  C   UNL     1     -29.607 -10.465  18.473  0.00  0.00    +0.125 C 
ATOM      8  C   UNL     1     -30.724  -9.484  18.849  0.00  0.00    +0.102 C 
ATOM      9  N   UNL     1     -31.806 -10.174  19.580  0.00  0.00    -0.294 NA
BRANCH   4  11
ATOM     10  C   UNL     1     -33.501 -10.614  22.062  0.00  0.00    +0.005 C 
ATOM     11  C   UNL     1     -31.990 -10.375  22.027  0.00  0.00    +0.017 C 
ENDBRANCH   4  11
BRANCH   9  12
ATOM     12  C   UNL     1     -32.664 -10.972  18.666  0.00  0.00    +0.115 C 
BRANCH  12  13
ATOM     13  C   UNL     1     -33.787 -10.112  18.055  0.00  0.00    +0.125 C 
ATOM     14  C   UNL     1     -34.601 -10.924  17.042  0.00  0.00    +0.039 C 
BRANCH  13  15
ATOM     15  O   UNL     1     -34.643  -9.654  19.069  0.00  0.00    -0.391 OA
ATOM     16  H   UNL     1     -34.476  -8.679  19.169  0.00  0.00    +0.210 HD
ENDBRANCH  13  15
ENDBRANCH  12  13
ENDBRANCH   9  12
ENDBRANCH   1   6
BRANCH   1  17
ATOM     17  C   UNL     1     -29.919 -13.381  18.017  0.00  0.00    +0.123 A 
ATOM     18  C   UNL     1     -31.161 -13.967  18.141  0.00  0.00    +0.112 A 
ATOM     19  N   UNL     1     -31.641 -14.265  16.920  0.00  0.00    -0.355 N 
ATOM     20  C   UNL     1     -30.705 -13.887  16.027  0.00  0.00    +0.104 A 
ATOM     21  C   UNL     1     -29.623 -13.317  16.671  0.00  0.00    +0.060 A 
ATOM     22  H   UNL     1     -32.580 -14.673  16.716  0.00  0.00    +0.166 HD
BRANCH  20  23
ATOM     23  C   UNL     1     -30.839 -14.023  14.567  0.00  0.00    +0.263 C 
ATOM     24  O   UNL     1     -30.151 -14.898  13.976  0.00  0.00    -0.268 OA
ATOM     25  N   UNL     1     -31.751 -13.204  13.812  0.00  0.00    -0.296 N 
ATOM     26  C   UNL     1     -31.720 -13.140  12.359  0.00  0.00    +0.108 C 
ATOM     27  C   UNL     1     -33.072 -12.580  11.938  0.00  0.00    +0.020 C 
ATOM     28  C   UNL     1     -33.682 -11.967  13.195  0.00  0.00    +0.020 C 
ATOM     29  C   UNL     1     -32.961 -12.620  14.367  0.00  0.00    +0.108 C 
ENDBRANCH  20  23
ENDBRANCH   1  17
TORSDOF 7
ENDMDL
MODEL 7
REMARK VINA RESULT:    -3.983      2.350      7.977
REMARK INTER + INTRA:          -6.022
REMARK INTER:                  -5.391
REMARK INTRA:                  -0.630
REMARK UNBOUND:                -0.525
REMARK  Name = 
REMARK  9 active torsions:
REMARK  status: ('A' for Active; 'I' for Inactive)
REMARK    1  A    between atoms: C_1  and  C_2
REMARK    2  A    between atoms: C_2  and  C_3
REMARK    3  A    between atoms: N_5  and  S_13
REMARK    4  A    between atoms: N_8  and  C_9
REMARK    5  A    between atoms: C_9  and  C_10
REMARK    6  A    between atoms: C_10  and  C_11
REMARK    7  A    between atoms: C_10  and  O_12
REMARK    8  A    between atoms: S_13  and  C_16
REMARK    9  A    between atoms: C_19  and  C_21
REMARK                            x       y       z     vdW  Elec       q    Type
REMARK                         _______ _______ _______ _____ _____    ______ ____
ROOT
ATOM      1  S   UNL     1     -31.074 -11.153  16.157  0.00  0.00    +0.062 S 
ATOM      2  O   UNL     1     -30.739  -9.790  15.620  0.00  0.00    -0.153 OA
ATOM      3  O   UNL     1     -30.523 -12.193  15.221  0.00  0.00    -0.153 OA
ENDROOT
BRANCH   1   6
ATOM      4  C   UNL     1     -33.756  -9.009  15.886  0.00  0.00    +0.072 C 
ATOM      5  C   UNL     1     -33.532 -10.452  15.348  0.00  0.00    +0.128 C 
ATOM      6  N   UNL     1     -32.809 -11.322  16.299  0.00  0.00    -0.174 NA
ATOM      7  C   UNL     1     -33.256 -11.209  17.704  0.00  0.00    +0.125 C 
ATOM      8  C   UNL     1     -34.492 -10.315  17.863  0.00  0.00    +0.102 C 
ATOM      9  N   UNL     1     -34.246  -8.973  17.297  0.00  0.00    -0.294 NA
BRANCH   4  11
ATOM     10  C   UNL     1     -35.062  -8.978  13.680  0.00  0.00    +0.005 C 
ATOM     11  C   UNL     1     -34.776  -8.260  15.000  0.00  0.00    +0.017 C 
ENDBRANCH   4  11
BRANCH   9  12
ATOM     12  C   UNL     1     -33.396  -8.146  18.193  0.00  0.00    +0.115 C 
BRANCH  12  13
ATOM     13  C   UNL     1     -34.188  -6.966  18.788  0.00  0.00    +0.125 C 
ATOM     14  C   UNL     1     -34.002  -6.900  20.307  0.00  0.00    +0.039 C 
BRANCH  13  15
ATOM     15  O   UNL     1     -33.747  -5.760  18.219  0.00  0.00    -0.391 OA
ATOM     16  H   UNL     1     -32.935  -5.972  17.688  0.00  0.00    +0.210 HD
ENDBRANCH  13  15
ENDBRANCH  12  13
ENDBRANCH   9  12
ENDBRANCH   1   6
BRANCH   1  17
ATOM     17  C   UNL     1     -30.322 -11.332  17.732  0.00  0.00    +0.123 A 
ATOM     18  C   UNL     1     -29.772 -10.327  18.498  0.00  0.00    +0.112 A 
ATOM     19  N   UNL     1     -29.229 -10.855  19.610  0.00  0.00    -0.355 N 
ATOM     20  C   UNL     1     -29.418 -12.189  19.543  0.00  0.00    +0.104 A 
ATOM     21  C   UNL     1     -30.110 -12.523  18.394  0.00  0.00    +0.060 A 
ATOM     22  H   UNL     1     -28.785 -10.319  20.387  0.00  0.00    +0.166 HD
BRANCH  20  23
ATOM     23  C   UNL     1     -28.986 -13.147  20.574  0.00  0.00    +0.263 C 
ATOM     24  O   UNL     1     -29.865 -13.764  21.233  0.00  0.00    -0.268 OA
ATOM     25  N   UNL     1     -27.593 -13.412  20.823  0.00  0.00    -0.296 N 
ATOM     26  C   UNL     1     -27.137 -14.150  21.991  0.00  0.00    +0.108 C 
ATOM     27  C   UNL     1     -25.724 -14.615  21.663  0.00  0.00    +0.020 C 
ATOM     28  C   UNL     1     -25.274 -13.779  20.469  0.00  0.00    +0.020 C 
ATOM     29  C   UNL     1     -26.549 -13.259  19.822  0.00  0.00    +0.108 C 
ENDBRANCH  20  23
ENDBRANCH   1  17
TORSDOF 7
ENDMDL
MODEL 8
REMARK VINA RESULT:    -3.811      2.342      5.340
REMARK INTER + INTRA:          -5.784
REMARK INTER:                  -5.093
REMARK INTRA:                  -0.692
REMARK UNBOUND:                -0.525
REMARK  Name = 
REMARK  9 active torsions:
REMARK  status: ('A' for Active; 'I' for Inactive)
REMARK    1  A    between atoms: C_1  and  C_2
REMARK    2  A    between atoms: C_2  and  C_3
REMARK    3  A    between atoms: N_5  and  S_13
REMARK    4  A    between atoms: N_8  and  C_9
REMARK    5  A    between atoms: C_9  and  C_10
REMARK    6  A    between atoms: C_10  and  C_11
REMARK    7  A    between atoms: C_10  and  O_12
REMARK    8  A    between atoms: S_13  and  C_16
REMARK    9  A    between atoms: C_19  and  C_21
REMARK                            x       y       z     vdW  Elec       q    Type
REMARK                         _______ _______ _______ _____ _____    ______ ____
ROOT
ATOM      1  S   UNL     1     -29.006 -12.379  18.521  0.00  0.00    +0.062 S 
ATOM      2  O   UNL     1     -27.710 -13.123  18.679  0.00  0.00    -0.153 OA
ATOM      3  O   UNL     1     -28.708 -10.971  18.086  0.00  0.00    -0.153 OA
ENDROOT
BRANCH   1   6
ATOM      4  C   UNL     1     -31.829 -10.802  19.705  0.00  0.00    +0.072 C 
ATOM      5  C   UNL     1     -31.334 -12.270  19.848  0.00  0.00    +0.128 C 
ATOM      6  N   UNL     1     -29.872 -12.374  20.041  0.00  0.00    -0.174 NA
ATOM      7  C   UNL     1     -29.302 -11.395  20.993  0.00  0.00    +0.125 C 
ATOM      8  C   UNL     1     -30.378 -10.565  21.703  0.00  0.00    +0.102 C 
ATOM      9  N   UNL     1     -31.245  -9.878  20.723  0.00  0.00    -0.294 NA
BRANCH   4  11
ATOM     10  C   UNL     1     -34.043 -10.163  18.582  0.00  0.00    +0.005 C 
ATOM     11  C   UNL     1     -33.368 -10.742  19.827  0.00  0.00    +0.017 C 
ENDBRANCH   4  11
BRANCH   9  12
ATOM     12  C   UNL     1     -30.570  -8.697  20.126  0.00  0.00    +0.115 C 
BRANCH  12  13
ATOM     13  C   UNL     1     -31.411  -7.418  20.305  0.00  0.00    +0.125 C 
ATOM     14  C   UNL     1     -30.572  -6.302  20.935  0.00  0.00    +0.039 C 
BRANCH  13  15
ATOM     15  O   UNL     1     -31.890  -6.983  19.058  0.00  0.00    -0.391 OA
ATOM     16  H   UNL     1     -31.917  -5.991  19.090  0.00  0.00    +0.210 HD
ENDBRANCH  13  15
ENDBRANCH  12  13
ENDBRANCH   9  12
ENDBRANCH   1   6
BRANCH   1  17
ATOM     17  C   UNL     1     -29.962 -13.179  17.288  0.00  0.00    +0.123 A 
ATOM     18  C   UNL     1     -30.672 -14.352  17.432  0.00  0.00    +0.112 A 
ATOM     19  N   UNL     1     -31.222 -14.693  16.252  0.00  0.00    -0.355 N 
ATOM     20  C   UNL     1     -30.851 -13.752  15.360  0.00  0.00    +0.104 A 
ATOM     21  C   UNL     1     -30.077 -12.784  15.972  0.00  0.00    +0.060 A 
ATOM     22  H   UNL     1     -31.849 -15.509  16.083  0.00  0.00    +0.166 HD
BRANCH  20  23
ATOM     23  C   UNL     1     -31.251 -13.739  13.943  0.00  0.00    +0.263 C 
ATOM     24  O   UNL     1     -30.682 -14.531  13.146  0.00  0.00    -0.268 OA
ATOM     25  N   UNL     1     -32.290 -12.867  13.460  0.00  0.00    -0.296 N 
ATOM     26  C   UNL     1     -32.528 -12.650  12.041  0.00  0.00    +0.108 C 
ATOM     27  C   UNL     1     -33.936 -12.080  11.938  0.00  0.00    +0.020 C 
ATOM     28  C   UNL     1     -34.305 -11.616  13.343  0.00  0.00    +0.020 C 
ATOM     29  C   UNL     1     -33.378 -12.371  14.286  0.00  0.00    +0.108 C 
ENDBRANCH  20  23
ENDBRANCH   1  17
TORSDOF 7
ENDMDL
MODEL 9
REMARK VINA RESULT:    -3.653      2.183      5.078
REMARK INTER + INTRA:          -5.567
REMARK INTER:                  -5.166
REMARK INTRA:                  -0.401
REMARK UNBOUND:                -0.525
REMARK  Name = 
REMARK  9 active torsions:
REMARK  status: ('A' for Active; 'I' for Inactive)
REMARK    1  A    between atoms: C_1  and  C_2
REMARK    2  A    between atoms: C_2  and  C_3
REMARK    3  A    between atoms: N_5  and  S_13
REMARK    4  A    between atoms: N_8  and  C_9
REMARK    5  A    between atoms: C_9  and  C_10
REMARK    6  A    between atoms: C_10  and  C_11
REMARK    7  A    between atoms: C_10  and  O_12
REMARK    8  A    between atoms: S_13  and  C_16
REMARK    9  A    between atoms: C_19  and  C_21
REMARK                            x       y       z     vdW  Elec       q    Type
REMARK                         _______ _______ _______ _____ _____    ______ ____
ROOT
ATOM      1  S   UNL     1     -28.783 -12.735  18.878  0.00  0.00    +0.062 S 
ATOM      2  O   UNL     1     -28.026 -12.273  17.665  0.00  0.00    -0.153 OA
ATOM      3  O   UNL     1     -27.862 -13.547  19.745  0.00  0.00    -0.153 OA
ENDROOT
BRANCH   1   6
ATOM      4  C   UNL     1     -30.340 -13.393  15.877  0.00  0.00    +0.072 C 
ATOM      5  C   UNL     1     -29.954 -14.324  17.063  0.00  0.00    +0.128 C 
ATOM      6  N   UNL     1     -30.159 -13.697  18.385  0.00  0.00    -0.174 NA
ATOM      7  C   UNL     1     -31.428 -12.950  18.526  0.00  0.00    +0.125 C 
ATOM      8  C   UNL     1     -32.346 -13.108  17.309  0.00  0.00    +0.102 C 
ATOM      9  N   UNL     1     -31.651 -12.703  16.069  0.00  0.00    -0.294 NA
BRANCH   4  11
ATOM     10  C   UNL     1     -29.165 -15.062  14.326  0.00  0.00    +0.005 C 
ATOM     11  C   UNL     1     -30.408 -14.201  14.562  0.00  0.00    +0.017 C 
ENDBRANCH   4  11
BRANCH   9  12
ATOM     12  C   UNL     1     -31.561 -11.225  15.948  0.00  0.00    +0.115 C 
BRANCH  12  13
ATOM     13  C   UNL     1     -32.726 -10.657  15.115  0.00  0.00    +0.125 C 
ATOM     14  C   UNL     1     -33.038 -11.571  13.926  0.00  0.00    +0.039 C 
BRANCH  13  15
ATOM     15  O   UNL     1     -33.874 -10.540  15.917  0.00  0.00    -0.391 OA
ATOM     16  H   UNL     1     -34.622 -10.955  15.411  0.00  0.00    +0.210 HD
ENDBRANCH  13  15
ENDBRANCH  12  13
ENDBRANCH   9  12
ENDBRANCH   1   6
BRANCH   1  17
ATOM     17  C   UNL     1     -29.326 -11.324  19.768  0.00  0.00    +0.123 A 
ATOM     18  C   UNL     1     -29.375 -11.186  21.139  0.00  0.00    +0.112 A 
ATOM     19  N   UNL     1     -29.911  -9.993  21.452  0.00  0.00    -0.355 N 
ATOM     20  C   UNL     1     -30.216  -9.382  20.289  0.00  0.00    +0.104 A 
ATOM     21  C   UNL     1     -29.852 -10.174  19.216  0.00  0.00    +0.060 A 
ATOM     22  H   UNL     1     -30.026  -9.608  22.415  0.00  0.00    +0.166 HD
BRANCH  20  23
ATOM     23  C   UNL     1     -30.813  -8.041  20.180  0.00  0.00    +0.263 C 
ATOM     24  O   UNL     1     -30.102  -7.038  20.456  0.00  0.00    -0.268 OA
ATOM     25  N   UNL     1     -32.172  -7.851  19.744  0.00  0.00    -0.296 N 
ATOM     26  C   UNL     1     -32.860  -6.576  19.870  0.00  0.00    +0.108 C 
ATOM     27  C   UNL     1     -34.040  -6.643  18.909  0.00  0.00    +0.020 C 
ATOM     28  C   UNL     1     -34.213  -8.117  18.560  0.00  0.00    +0.020 C 
ATOM     29  C   UNL     1     -32.878  -8.779  18.874  0.00  0.00    +0.108 C 
ENDBRANCH  20  23
ENDBRANCH   1  17
TORSDOF 7
ENDMDL
