MODEL 1
REMARK VINA RESULT:    -5.441      0.000      0.000
REMARK INTER + INTRA:          -8.769
REMARK INTER:                  -7.350
REMARK INTRA:                  -1.419
REMARK UNBOUND:                -1.419
REMARK  Name = 
REMARK  6 active torsions:
REMARK  status: ('A' for Active; 'I' for Inactive)
REMARK    1  A    between atoms: C_2  and  C_4
REMARK    2  A    between atoms: C_6  and  N_11
REMARK    3  A    between atoms: C_12  and  C_14
REMARK    4  A    between atoms: C_19  and  O_20
REMARK    5  A    between atoms: O_20  and  C_21
REMARK    6  A    between atoms: C_21  and  C_22
REMARK                            x       y       z     vdW  Elec       q    Type
REMARK                         _______ _______ _______ _____ _____    ______ ____
ROOT
ATOM      1  N   UNL     1     -32.279 -12.734  16.676  0.00  0.00    -0.281 N 
ATOM      2  C   UNL     1     -32.265 -11.650  15.729  0.00  0.00    +0.252 C 
ATOM      3  O   UNL     1     -31.702 -10.558  16.014  0.00  0.00    -0.270 OA
ATOM      4  H   UNL     1     -32.732 -13.633  16.398  0.00  0.00    +0.155 HD
ENDROOT
BRANCH   1   7
ATOM      5  C   UNL     1     -29.640 -13.066  19.347  0.00  0.00    +0.073 A 
ATOM      6  C   UNL     1     -30.284 -13.129  18.096  0.00  0.00    +0.039 A 
ATOM      7  C   UNL     1     -31.615 -12.699  17.951  0.00  0.00    +0.035 A 
ATOM      8  C   UNL     1     -32.285 -12.158  19.054  0.00  0.00    +0.026 A 
ATOM      9  C   UNL     1     -31.653 -12.083  20.297  0.00  0.00    +0.041 A 
ATOM     10  C   UNL     1     -30.340 -12.536  20.449  0.00  0.00    +0.136 A 
ATOM     11  F   UNL     1     -29.764 -12.466  21.675  0.00  0.00    -0.205 F 
BRANCH   5  13
ATOM     12  N   UNL     1     -27.904 -14.641  20.323  0.00  0.00    -0.325 N 
ATOM     13  C   UNL     1     -28.237 -13.526  19.492  0.00  0.00    +0.244 C 
ATOM     14  O   UNL     1     -27.313 -12.926  18.879  0.00  0.00    -0.270 OA
ATOM     15  H   UNL     1     -26.917 -14.982  20.368  0.00  0.00    +0.145 HD
ATOM     16  H   UNL     1     -28.607 -15.082  20.954  0.00  0.00    +0.145 HD
ENDBRANCH   5  13
ENDBRANCH   1   7
BRANCH   2  17
ATOM     17  C   UNL     1     -32.914 -11.799  14.409  0.00  0.00    +0.079 A 
ATOM     18  C   UNL     1     -34.012 -10.981  14.091  0.00  0.00    +0.017 A 
ATOM     19  C   UNL     1     -34.667 -11.121  12.867  0.00  0.00    +0.001 A 
ATOM     20  C   UNL     1     -34.230 -12.071  11.946  0.00  0.00    +0.004 A 
ATOM     21  C   UNL     1     -33.127 -12.876  12.237  0.00  0.00    +0.046 A 
ATOM     22  C   UNL     1     -32.448 -12.741  13.466  0.00  0.00    +0.133 A 
BRANCH  22  23
ATOM     23  O   UNL     1     -31.296 -13.490  13.765  0.00  0.00    -0.491 OA
BRANCH  23  24
ATOM     24  C   UNL     1     -30.353 -13.985  12.816  0.00  0.00    +0.232 C 
BRANCH  24  25
ATOM     25  C   UNL     1     -29.472 -15.062  13.462  0.00  0.00    +0.027 C 
ATOM     26  C   UNL     1     -27.993 -14.726  13.580  0.00  0.00    +0.007 C 
ATOM     27  C   UNL     1     -28.884 -14.682  14.812  0.00  0.00    +0.007 C 
ENDBRANCH  24  25
ENDBRANCH  23  24
ENDBRANCH  22  23
ENDBRANCH   2  17
TORSDOF 6
ENDMDL
MODEL 2
REMARK VINA RESULT:    -5.292      1.568      3.553
REMARK INTER + INTRA:          -8.568
REMARK INTER:                  -6.864
REMARK INTRA:                  -1.703
REMARK UNBOUND:                -1.419
REMARK  Name = 
REMARK  6 active torsions:
REMARK  status: ('A' for Active; 'I' for Inactive)
REMARK    1  A    between atoms: C_2  and  C_4
REMARK    2  A    between atoms: C_6  and  N_11
REMARK    3  A    between atoms: C_12  and  C_14
REMARK    4  A    between atoms: C_19  and  O_20
REMARK    5  A    between atoms: O_20  and  C_21
REMARK    6  A    between atoms: C_21  and  C_22
REMARK                            x       y       z     vdW  Elec       q    Type
REMARK                         _______ _______ _______ _____ _____    ______ ____
ROOT
ATOM      1  N   UNL     1     -32.080 -12.857  16.879  0.00  0.00    -0.281 N 
ATOM      2  C   UNL     1     -31.618 -12.228  15.670  0.00  0.00    +0.252 C 
ATOM      3  O   UNL     1     -30.588 -11.499  15.681  0.00  0.00    -0.270 OA
ATOM      4  H   UNL     1     -32.922 -13.474  16.829  0.00  0.00    +0.155 HD
ENDROOT
BRANCH   1   7
ATOM      5  C   UNL     1     -29.407 -13.122  19.523  0.00  0.00    +0.073 A 
ATOM      6  C   UNL     1     -30.072 -13.227  18.286  0.00  0.00    +0.039 A 
ATOM      7  C   UNL     1     -31.396 -12.779  18.141  0.00  0.00    +0.035 A 
ATOM      8  C   UNL     1     -32.040 -12.178  19.229  0.00  0.00    +0.026 A 
ATOM      9  C   UNL     1     -31.388 -12.060  20.457  0.00  0.00    +0.041 A 
ATOM     10  C   UNL     1     -30.081 -12.530  20.611  0.00  0.00    +0.136 A 
ATOM     11  F   UNL     1     -29.485 -12.416  21.824  0.00  0.00    -0.205 F 
BRANCH   5  13
ATOM     12  N   UNL     1     -27.702 -14.764  20.441  0.00  0.00    -0.325 N 
ATOM     13  C   UNL     1     -28.011 -13.601  19.668  0.00  0.00    +0.244 C 
ATOM     14  O   UNL     1     -27.071 -12.975  19.108  0.00  0.00    -0.270 OA
ATOM     15  H   UNL     1     -26.720 -15.115  20.485  0.00  0.00    +0.145 HD
ATOM     16  H   UNL     1     -28.421 -15.234  21.033  0.00  0.00    +0.145 HD
ENDBRANCH   5  13
ENDBRANCH   1   7
BRANCH   2  17
ATOM     17  C   UNL     1     -32.346 -12.421  14.398  0.00  0.00    +0.079 A 
ATOM     18  C   UNL     1     -31.671 -12.989  13.304  0.00  0.00    +0.017 A 
ATOM     19  C   UNL     1     -32.321 -13.154  12.080  0.00  0.00    +0.001 A 
ATOM     20  C   UNL     1     -33.651 -12.763  11.938  0.00  0.00    +0.004 A 
ATOM     21  C   UNL     1     -34.343 -12.218  13.021  0.00  0.00    +0.046 A 
ATOM     22  C   UNL     1     -33.703 -12.054  14.267  0.00  0.00    +0.133 A 
BRANCH  22  23
ATOM     23  O   UNL     1     -34.387 -11.569  15.396  0.00  0.00    -0.491 OA
BRANCH  23  24
ATOM     24  C   UNL     1     -35.062 -10.315  15.488  0.00  0.00    +0.232 C 
BRANCH  24  25
ATOM     25  C   UNL     1     -34.047  -9.183  15.691  0.00  0.00    +0.027 C 
ATOM     26  C   UNL     1     -34.472  -8.073  16.640  0.00  0.00    +0.007 C 
ATOM     27  C   UNL     1     -33.449  -9.106  17.087  0.00  0.00    +0.007 C 
ENDBRANCH  24  25
ENDBRANCH  23  24
ENDBRANCH  22  23
ENDBRANCH   2  17
TORSDOF 6
ENDMDL
MODEL 3
REMARK VINA RESULT:    -4.816      2.978      3.934
REMARK INTER + INTRA:          -7.924
REMARK INTER:                  -6.537
REMARK INTRA:                  -1.386
REMARK UNBOUND:                -1.419
REMARK  Name = 
REMARK  6 active torsions:
REMARK  status: ('A' for Active; 'I' for Inactive)
REMARK    1  A    between atoms: C_2  and  C_4
REMARK    2  A    between atoms: C_6  and  N_11
REMARK    3  A    between atoms: C_12  and  C_14
REMARK    4  A    between atoms: C_19  and  O_20
REMARK    5  A    between atoms: O_20  and  C_21
REMARK    6  A    between atoms: C_21  and  C_22
REMARK                            x       y       z     vdW  Elec       q    Type
REMARK                         _______ _______ _______ _____ _____    ______ ____
ROOT
ATOM      1  N   UNL     1     -31.491 -10.600  16.149  0.00  0.00    -0.281 N 
ATOM      2  C   UNL     1     -32.736 -11.253  15.835  0.00  0.00    +0.252 C 
ATOM      3  O   UNL     1     -33.636 -11.368  16.710  0.00  0.00    -0.270 OA
ATOM      4  H   UNL     1     -30.777 -10.499  15.393  0.00  0.00    +0.155 HD
ENDROOT
BRANCH   1   7
ATOM      5  C   UNL     1     -31.704  -8.335  19.154  0.00  0.00    +0.073 A 
ATOM      6  C   UNL     1     -31.984  -8.917  17.903  0.00  0.00    +0.039 A 
ATOM      7  C   UNL     1     -31.203  -9.979  17.413  0.00  0.00    +0.035 A 
ATOM      8  C   UNL     1     -30.168 -10.490  18.203  0.00  0.00    +0.026 A 
ATOM      9  C   UNL     1     -29.886  -9.927  19.449  0.00  0.00    +0.041 A 
ATOM     10  C   UNL     1     -30.644  -8.854  19.925  0.00  0.00    +0.136 A 
ATOM     11  F   UNL     1     -30.330  -8.318  21.132  0.00  0.00    -0.205 F 
BRANCH   5  13
ATOM     12  N   UNL     1     -32.540  -5.943  19.006  0.00  0.00    -0.325 N 
ATOM     13  C   UNL     1     -32.531  -7.213  19.662  0.00  0.00    +0.244 C 
ATOM     14  O   UNL     1     -33.238  -7.371  20.694  0.00  0.00    -0.270 OA
ATOM     15  H   UNL     1     -33.171  -5.184  19.348  0.00  0.00    +0.145 HD
ATOM     16  H   UNL     1     -31.873  -5.720  18.236  0.00  0.00    +0.145 HD
ENDBRANCH   5  13
ENDBRANCH   1   7
BRANCH   2  17
ATOM     17  C   UNL     1     -32.974 -11.802  14.483  0.00  0.00    +0.079 A 
ATOM     18  C   UNL     1     -34.128 -11.413  13.781  0.00  0.00    +0.017 A 
ATOM     19  C   UNL     1     -34.398 -11.939  12.518  0.00  0.00    +0.001 A 
ATOM     20  C   UNL     1     -33.517 -12.851  11.938  0.00  0.00    +0.004 A 
ATOM     21  C   UNL     1     -32.354 -13.230  12.612  0.00  0.00    +0.046 A 
ATOM     22  C   UNL     1     -32.062 -12.700  13.886  0.00  0.00    +0.133 A 
BRANCH  22  23
ATOM     23  O   UNL     1     -30.870 -13.011  14.565  0.00  0.00    -0.491 OA
BRANCH  23  24
ATOM     24  C   UNL     1     -30.073 -14.176  14.361  0.00  0.00    +0.232 C 
BRANCH  24  25
ATOM     25  C   UNL     1     -29.643 -14.764  15.711  0.00  0.00    +0.027 C 
ATOM     26  C   UNL     1     -29.028 -13.781  16.696  0.00  0.00    +0.007 C 
ATOM     27  C   UNL     1     -30.451 -14.278  16.904  0.00  0.00    +0.007 C 
ENDBRANCH  24  25
ENDBRANCH  23  24
ENDBRANCH  22  23
ENDBRANCH   2  17
TORSDOF 6
ENDMDL
MODEL 4
REMARK VINA RESULT:    -4.678      3.232      3.996
REMARK INTER + INTRA:          -7.738
REMARK INTER:                  -6.201
REMARK INTRA:                  -1.537
REMARK UNBOUND:                -1.419
REMARK  Name = 
REMARK  6 active torsions:
REMARK  status: ('A' for Active; 'I' for Inactive)
REMARK    1  A    between atoms: C_2  and  C_4
REMARK    2  A    between atoms: C_6  and  N_11
REMARK    3  A    between atoms: C_12  and  C_14
REMARK    4  A    between atoms: C_19  and  O_20
REMARK    5  A    between atoms: O_20  and  C_21
REMARK    6  A    between atoms: C_21  and  C_22
REMARK                            x       y       z     vdW  Elec       q    Type
REMARK                         _______ _______ _______ _____ _____    ______ ____
ROOT
ATOM      1  N   UNL     1     -32.577 -10.049  16.049  0.00  0.00    -0.281 N 
ATOM      2  C   UNL     1     -33.484 -11.101  15.671  0.00  0.00    +0.252 C 
ATOM      3  O   UNL     1     -34.427 -11.440  16.436  0.00  0.00    -0.270 OA
ATOM      4  H   UNL     1     -31.822  -9.777  15.381  0.00  0.00    +0.155 HD
ENDROOT
BRANCH   1   7
ATOM      5  C   UNL     1     -31.766  -8.342  19.311  0.00  0.00    +0.073 A 
ATOM      6  C   UNL     1     -31.633  -9.129  18.150  0.00  0.00    +0.039 A 
ATOM      7  C   UNL     1     -32.704  -9.269  17.250  0.00  0.00    +0.035 A 
ATOM      8  C   UNL     1     -33.897  -8.578  17.491  0.00  0.00    +0.026 A 
ATOM      9  C   UNL     1     -34.037  -7.788  18.634  0.00  0.00    +0.041 A 
ATOM     10  C   UNL     1     -32.983  -7.669  19.543  0.00  0.00    +0.136 A 
ATOM     11  F   UNL     1     -33.160  -6.909  20.652  0.00  0.00    -0.205 F 
BRANCH   5  13
ATOM     12  N   UNL     1     -30.065  -9.342  20.908  0.00  0.00    -0.325 N 
ATOM     13  C   UNL     1     -30.632  -8.202  20.256  0.00  0.00    +0.244 C 
ATOM     14  O   UNL     1     -30.155  -7.061  20.501  0.00  0.00    -0.270 OA
ATOM     15  H   UNL     1     -29.231  -9.228  21.527  0.00  0.00    +0.145 HD
ATOM     16  H   UNL     1     -30.508 -10.284  20.846  0.00  0.00    +0.145 HD
ENDBRANCH   5  13
ENDBRANCH   1   7
BRANCH   2  17
ATOM     17  C   UNL     1     -33.320 -11.804  14.381  0.00  0.00    +0.079 A 
ATOM     18  C   UNL     1     -34.378 -11.791  13.456  0.00  0.00    +0.017 A 
ATOM     19  C   UNL     1     -34.267 -12.473  12.243  0.00  0.00    +0.001 A 
ATOM     20  C   UNL     1     -33.096 -13.166  11.938  0.00  0.00    +0.004 A 
ATOM     21  C   UNL     1     -32.027 -13.170  12.835  0.00  0.00    +0.046 A 
ATOM     22  C   UNL     1     -32.120 -12.478  14.061  0.00  0.00    +0.133 A 
BRANCH  22  23
ATOM     23  O   UNL     1     -31.041 -12.407  14.959  0.00  0.00    -0.491 OA
BRANCH  23  24
ATOM     24  C   UNL     1     -30.304 -13.517  15.467  0.00  0.00    +0.232 C 
BRANCH  24  25
ATOM     25  C   UNL     1     -30.996 -14.084  16.713  0.00  0.00    +0.027 C 
ATOM     26  C   UNL     1     -30.196 -14.014  18.005  0.00  0.00    +0.007 C 
ATOM     27  C   UNL     1     -31.350 -13.050  17.772  0.00  0.00    +0.007 C 
ENDBRANCH  24  25
ENDBRANCH  23  24
ENDBRANCH  22  23
ENDBRANCH   2  17
TORSDOF 6
ENDMDL
MODEL 5
REMARK VINA RESULT:    -4.627      2.751      7.723
REMARK INTER + INTRA:          -7.669
REMARK INTER:                  -6.165
REMARK INTRA:                  -1.504
REMARK UNBOUND:                -1.419
REMARK  Name = 
REMARK  6 active torsions:
REMARK  status: ('A' for Active; 'I' for Inactive)
REMARK    1  A    between atoms: C_2  and  C_4
REMARK    2  A    between atoms: C_6  and  N_11
REMARK    3  A    between atoms: C_12  and  C_14
REMARK    4  A    between atoms: C_19  and  O_20
REMARK    5  A    between atoms: O_20  and  C_21
REMARK    6  A    between atoms: C_21  and  C_22
REMARK                            x       y       z     vdW  Elec       q    Type
REMARK                         _______ _______ _______ _____ _____    ______ ____
ROOT
ATOM      1  N   UNL     1     -29.367 -14.032  17.759  0.00  0.00    -0.281 N 
ATOM      2  C   UNL     1     -28.480 -13.092  18.393  0.00  0.00    +0.252 C 
ATOM      3  O   UNL     1     -28.248 -11.972  17.861  0.00  0.00    -0.270 OA
ATOM      4  H   UNL     1     -29.556 -14.940  18.239  0.00  0.00    +0.155 HD
ENDROOT
BRANCH   1   7
ATOM      5  C   UNL     1     -31.911 -12.644  15.349  0.00  0.00    +0.073 A 
ATOM      6  C   UNL     1     -31.220 -12.917  16.545  0.00  0.00    +0.039 A 
ATOM      7  C   UNL     1     -30.097 -13.763  16.550  0.00  0.00    +0.035 A 
ATOM      8  C   UNL     1     -29.637 -14.298  15.342  0.00  0.00    +0.026 A 
ATOM      9  C   UNL     1     -30.309 -14.028  14.148  0.00  0.00    +0.041 A 
ATOM     10  C   UNL     1     -31.440 -13.209  14.146  0.00  0.00    +0.136 A 
ATOM     11  F   UNL     1     -32.080 -12.983  12.971  0.00  0.00    -0.205 F 
BRANCH   5  13
ATOM     12  N   UNL     1     -33.061 -10.467  14.728  0.00  0.00    -0.325 N 
ATOM     13  C   UNL     1     -33.097 -11.753  15.354  0.00  0.00    +0.244 C 
ATOM     14  O   UNL     1     -34.159 -12.125  15.922  0.00  0.00    -0.270 OA
ATOM     15  H   UNL     1     -33.924  -9.879  14.696  0.00  0.00    +0.145 HD
ATOM     16  H   UNL     1     -32.172 -10.059  14.368  0.00  0.00    +0.145 HD
ENDBRANCH   5  13
ENDBRANCH   1   7
BRANCH   2  17
ATOM     17  C   UNL     1     -27.825 -13.426  19.675  0.00  0.00    +0.079 A 
ATOM     18  C   UNL     1     -26.425 -13.541  19.717  0.00  0.00    +0.017 A 
ATOM     19  C   UNL     1     -25.779 -13.889  20.905  0.00  0.00    +0.001 A 
ATOM     20  C   UNL     1     -26.522 -14.116  22.062  0.00  0.00    +0.004 A 
ATOM     21  C   UNL     1     -27.912 -13.983  22.043  0.00  0.00    +0.046 A 
ATOM     22  C   UNL     1     -28.579 -13.624  20.853  0.00  0.00    +0.133 A 
BRANCH  22  23
ATOM     23  O   UNL     1     -29.969 -13.419  20.813  0.00  0.00    -0.491 OA
BRANCH  23  24
ATOM     24  C   UNL     1     -30.635 -12.173  21.015  0.00  0.00    +0.232 C 
BRANCH  24  25
ATOM     25  C   UNL     1     -31.903 -12.107  20.153  0.00  0.00    +0.027 C 
ATOM     26  C   UNL     1     -33.027 -11.237  20.695  0.00  0.00    +0.007 C 
ATOM     27  C   UNL     1     -32.180 -10.748  19.530  0.00  0.00    +0.007 C 
ENDBRANCH  24  25
ENDBRANCH  23  24
ENDBRANCH  22  23
ENDBRANCH   2  17
TORSDOF 6
ENDMDL
MODEL 6
REMARK VINA RESULT:    -4.625      1.971      4.093
REMARK INTER + INTRA:          -7.667
REMARK INTER:                  -5.890
REMARK INTRA:                  -1.777
REMARK UNBOUND:                -1.419
REMARK  Name = 
REMARK  6 active torsions:
REMARK  status: ('A' for Active; 'I' for Inactive)
REMARK    1  A    between atoms: C_2  and  C_4
REMARK    2  A    between atoms: C_6  and  N_11
REMARK    3  A    between atoms: C_12  and  C_14
REMARK    4  A    between atoms: C_19  and  O_20
REMARK    5  A    between atoms: O_20  and  C_21
REMARK    6  A    between atoms: C_21  and  C_22
REMARK                            x       y       z     vdW  Elec       q    Type
REMARK                         _______ _______ _______ _____ _____    ______ ____
ROOT
ATOM      1  N   UNL     1     -30.725 -12.527  16.873  0.00  0.00    -0.281 N 
ATOM      2  C   UNL     1     -30.311 -13.848  16.477  0.00  0.00    +0.252 C 
ATOM      3  O   UNL     1     -30.219 -14.772  17.330  0.00  0.00    -0.270 OA
ATOM      4  H   UNL     1     -30.815 -11.791  16.137  0.00  0.00    +0.155 HD
ENDROOT
BRANCH   1   7
ATOM      5  C   UNL     1     -30.602 -11.399  20.468  0.00  0.00    +0.073 A 
ATOM      6  C   UNL     1     -30.190 -11.764  19.172  0.00  0.00    +0.039 A 
ATOM      7  C   UNL     1     -31.127 -12.174  18.207  0.00  0.00    +0.035 A 
ATOM      8  C   UNL     1     -32.489 -12.171  18.531  0.00  0.00    +0.026 A 
ATOM      9  C   UNL     1     -32.910 -11.803  19.810  0.00  0.00    +0.041 A 
ATOM     10  C   UNL     1     -31.977 -11.422  20.777  0.00  0.00    +0.136 A 
ATOM     11  F   UNL     1     -32.420 -11.089  22.016  0.00  0.00    -0.205 F 
BRANCH   5  13
ATOM     12  N   UNL     1     -29.653  -9.666  22.062  0.00  0.00    -0.325 N 
ATOM     13  C   UNL     1     -29.606 -10.972  21.480  0.00  0.00    +0.244 C 
ATOM     14  O   UNL     1     -28.693 -11.765  21.836  0.00  0.00    -0.270 OA
ATOM     15  H   UNL     1     -28.975  -9.405  22.812  0.00  0.00    +0.145 HD
ATOM     16  H   UNL     1     -30.299  -8.931  21.703  0.00  0.00    +0.145 HD
ENDBRANCH   5  13
ENDBRANCH   1   7
BRANCH   2  17
ATOM     17  C   UNL     1     -29.984 -14.138  15.065  0.00  0.00    +0.079 A 
ATOM     18  C   UNL     1     -28.726 -14.682  14.753  0.00  0.00    +0.017 A 
ATOM     19  C   UNL     1     -28.374 -14.936  13.427  0.00  0.00    +0.001 A 
ATOM     20  C   UNL     1     -29.276 -14.659  12.400  0.00  0.00    +0.004 A 
ATOM     21  C   UNL     1     -30.539 -14.141  12.695  0.00  0.00    +0.046 A 
ATOM     22  C   UNL     1     -30.913 -13.887  14.031  0.00  0.00    +0.133 A 
BRANCH  22  23
ATOM     23  O   UNL     1     -32.197 -13.425  14.369  0.00  0.00    -0.491 OA
BRANCH  23  24
ATOM     24  C   UNL     1     -32.834 -12.265  13.836  0.00  0.00    +0.232 C 
BRANCH  24  25
ATOM     25  C   UNL     1     -33.351 -11.378  14.975  0.00  0.00    +0.027 C 
ATOM     26  C   UNL     1     -32.583 -10.085  15.209  0.00  0.00    +0.007 C 
ATOM     27  C   UNL     1     -33.943 -10.049  14.529  0.00  0.00    +0.007 C 
ENDBRANCH  24  25
ENDBRANCH  23  24
ENDBRANCH  22  23
ENDBRANCH   2  17
TORSDOF 6
ENDMDL
MODEL 7
REMARK VINA RESULT:    -4.480      3.311      6.249
REMARK INTER + INTRA:          -7.470
REMARK INTER:                  -6.056
REMARK INTRA:                  -1.414
REMARK UNBOUND:                -1.419
REMARK  Name = 
REMARK  6 active torsions:
REMARK  status: ('A' for Active; 'I' for Inactive)
REMARK    1  A    between atoms: C_2  and  C_4
REMARK    2  A    between atoms: C_6  and  N_11
REMARK    3  A    between atoms: C_12  and  C_14
REMARK    4  A    between atoms: C_19  and  O_20
REMARK    5  A    between atoms: O_20  and  C_21
REMARK    6  A    between atoms: C_21  and  C_22
REMARK                            x       y       z     vdW  Elec       q    Type
REMARK                         _______ _______ _______ _____ _____    ______ ____
ROOT
ATOM      1  N   UNL     1     -31.878 -11.055  16.867  0.00  0.00    -0.281 N 
ATOM      2  C   UNL     1     -31.138  -9.870  17.216  0.00  0.00    +0.252 C 
ATOM      3  O   UNL     1     -30.179  -9.480  16.497  0.00  0.00    -0.270 OA
ATOM      4  H   UNL     1     -32.683 -11.336  17.470  0.00  0.00    +0.155 HD
ENDROOT
BRANCH   1   7
ATOM      5  C   UNL     1     -30.439 -13.561  14.447  0.00  0.00    +0.073 A 
ATOM      6  C   UNL     1     -30.635 -12.797  15.614  0.00  0.00    +0.039 A 
ATOM      7  C   UNL     1     -31.649 -11.826  15.675  0.00  0.00    +0.035 A 
ATOM      8  C   UNL     1     -32.501 -11.654  14.578  0.00  0.00    +0.026 A 
ATOM      9  C   UNL     1     -32.321 -12.412  13.419  0.00  0.00    +0.041 A 
ATOM     10  C   UNL     1     -31.297 -13.358  13.348  0.00  0.00    +0.136 A 
ATOM     11  F   UNL     1     -31.138 -14.063  12.199  0.00  0.00    -0.205 F 
BRANCH   5  13
ATOM     12  N   UNL     1     -28.706 -15.033  15.578  0.00  0.00    -0.325 N 
ATOM     13  C   UNL     1     -29.363 -14.582  14.391  0.00  0.00    +0.244 C 
ATOM     14  O   UNL     1     -29.012 -15.062  13.279  0.00  0.00    -0.270 OA
ATOM     15  H   UNL     1     -27.990 -15.792  15.521  0.00  0.00    +0.145 HD
ATOM     16  H   UNL     1     -28.862 -14.570  16.499  0.00  0.00    +0.145 HD
ENDBRANCH   5  13
ENDBRANCH   1   7
BRANCH   2  17
ATOM     17  C   UNL     1     -31.490  -9.097  18.426  0.00  0.00    +0.079 A 
ATOM     18  C   UNL     1     -32.678  -8.346  18.436  0.00  0.00    +0.017 A 
ATOM     19  C   UNL     1     -33.021  -7.579  19.550  0.00  0.00    +0.001 A 
ATOM     20  C   UNL     1     -32.187  -7.560  20.667  0.00  0.00    +0.004 A 
ATOM     21  C   UNL     1     -31.015  -8.318  20.683  0.00  0.00    +0.046 A 
ATOM     22  C   UNL     1     -30.659  -9.106  19.568  0.00  0.00    +0.133 A 
BRANCH  22  23
ATOM     23  O   UNL     1     -29.521  -9.931  19.574  0.00  0.00    -0.491 OA
BRANCH  23  24
ATOM     24  C   UNL     1     -29.359 -11.125  20.338  0.00  0.00    +0.232 C 
BRANCH  24  25
ATOM     25  C   UNL     1     -28.216 -11.969  19.762  0.00  0.00    +0.027 C 
ATOM     26  C   UNL     1     -28.617 -13.009  18.725  0.00  0.00    +0.007 C 
ATOM     27  C   UNL     1     -27.924 -11.727  18.289  0.00  0.00    +0.007 C 
ENDBRANCH  24  25
ENDBRANCH  23  24
ENDBRANCH  22  23
ENDBRANCH   2  17
TORSDOF 6
ENDMDL
MODEL 8
REMARK VINA RESULT:    -4.407      2.495      4.180
REMARK INTER + INTRA:          -7.372
REMARK INTER:                  -5.759
REMARK INTRA:                  -1.614
REMARK UNBOUND:                -1.419
REMARK  Name = 
REMARK  6 active torsions:
REMARK  status: ('A' for Active; 'I' for Inactive)
REMARK    1  A    between atoms: C_2  and  C_4
REMARK    2  A    between atoms: C_6  and  N_11
REMARK    3  A    between atoms: C_12  and  C_14
REMARK    4  A    between atoms: C_19  and  O_20
REMARK    5  A    between atoms: O_20  and  C_21
REMARK    6  A    between atoms: C_21  and  C_22
REMARK                            x       y       z     vdW  Elec       q    Type
REMARK                         _______ _______ _______ _____ _____    ______ ____
ROOT
ATOM      1  N   UNL     1     -30.597 -11.968  16.086  0.00  0.00    -0.281 N 
ATOM      2  C   UNL     1     -31.696 -12.832  15.738  0.00  0.00    +0.252 C 
ATOM      3  O   UNL     1     -32.080 -13.731  16.534  0.00  0.00    -0.270 OA
ATOM      4  H   UNL     1     -30.321 -11.218  15.414  0.00  0.00    +0.155 HD
ENDROOT
BRANCH   1   7
ATOM      5  C   UNL     1     -29.648 -11.233  19.659  0.00  0.00    +0.073 A 
ATOM      6  C   UNL     1     -30.310 -11.172  18.417  0.00  0.00    +0.039 A 
ATOM      7  C   UNL     1     -29.917 -12.001  17.352  0.00  0.00    +0.035 A 
ATOM      8  C   UNL     1     -28.888 -12.929  17.549  0.00  0.00    +0.026 A 
ATOM      9  C   UNL     1     -28.231 -13.004  18.778  0.00  0.00    +0.041 A 
ATOM     10  C   UNL     1     -28.602 -12.162  19.829  0.00  0.00    +0.136 A 
ATOM     11  F   UNL     1     -27.929 -12.249  21.004  0.00  0.00    -0.205 F 
BRANCH   5  13
ATOM     12  N   UNL     1     -30.046  -8.927  20.645  0.00  0.00    -0.325 N 
ATOM     13  C   UNL     1     -30.067 -10.351  20.776  0.00  0.00    +0.244 C 
ATOM     14  O   UNL     1     -30.445 -10.857  21.867  0.00  0.00    -0.270 OA
ATOM     15  H   UNL     1     -30.397  -8.327  21.425  0.00  0.00    +0.145 HD
ATOM     16  H   UNL     1     -29.615  -8.460  19.819  0.00  0.00    +0.145 HD
ENDBRANCH   5  13
ENDBRANCH   1   7
BRANCH   2  17
ATOM     17  C   UNL     1     -32.385 -12.680  14.439  0.00  0.00    +0.079 A 
ATOM     18  C   UNL     1     -31.697 -13.004  13.258  0.00  0.00    +0.017 A 
ATOM     19  C   UNL     1     -32.309 -12.839  12.014  0.00  0.00    +0.001 A 
ATOM     20  C   UNL     1     -33.616 -12.359  11.938  0.00  0.00    +0.004 A 
ATOM     21  C   UNL     1     -34.322 -12.055  13.103  0.00  0.00    +0.046 A 
ATOM     22  C   UNL     1     -33.720 -12.224  14.368  0.00  0.00    +0.133 A 
BRANCH  22  23
ATOM     23  O   UNL     1     -34.423 -11.989  15.563  0.00  0.00    -0.491 OA
BRANCH  23  24
ATOM     24  C   UNL     1     -34.889 -10.720  16.020  0.00  0.00    +0.232 C 
BRANCH  24  25
ATOM     25  C   UNL     1     -34.023 -10.230  17.187  0.00  0.00    +0.027 C 
ATOM     26  C   UNL     1     -33.022  -9.134  16.854  0.00  0.00    +0.007 C 
ATOM     27  C   UNL     1     -34.291  -8.797  17.623  0.00  0.00    +0.007 C 
ENDBRANCH  24  25
ENDBRANCH  23  24
ENDBRANCH  22  23
ENDBRANCH   2  17
TORSDOF 6
ENDMDL
MODEL 9
REMARK VINA RESULT:    -4.374      3.499      6.426
REMARK INTER + INTRA:          -7.327
REMARK INTER:                  -5.485
REMARK INTRA:                  -1.842
REMARK UNBOUND:                -1.419
REMARK  Name = 
REMARK  6 active torsions:
REMARK  status: ('A' for Active; 'I' for Inactive)
REMARK    1  A    between atoms: C_2  and  C_4
REMARK    2  A    between atoms: C_6  and  N_11
REMARK    3  A    between atoms: C_12  and  C_14
REMARK    4  A    between atoms: C_19  and  O_20
REMARK    5  A    between atoms: O_20  and  C_21
REMARK    6  A    between atoms: C_21  and  C_22
REMARK                            x       y       z     vdW  Elec       q    Type
REMARK                         _______ _______ _______ _____ _____    ______ ____
ROOT
ATOM      1  N   UNL     1     -31.243  -9.881  17.002  0.00  0.00    -0.281 N 
ATOM      2  C   UNL     1     -32.243  -9.669  18.016  0.00  0.00    +0.252 C 
ATOM      3  O   UNL     1     -33.263 -10.408  18.074  0.00  0.00    -0.270 OA
ATOM      4  H   UNL     1     -30.399  -9.267  16.998  0.00  0.00    +0.155 HD
ENDROOT
BRANCH   1   7
ATOM      5  C   UNL     1     -30.631 -13.205  15.333  0.00  0.00    +0.073 A 
ATOM      6  C   UNL     1     -30.568 -12.151  16.265  0.00  0.00    +0.039 A 
ATOM      7  C   UNL     1     -31.278 -10.957  16.049  0.00  0.00    +0.035 A 
ATOM      8  C   UNL     1     -32.092 -10.839  14.917  0.00  0.00    +0.026 A 
ATOM      9  C   UNL     1     -32.169 -11.880  13.991  0.00  0.00    +0.041 A 
ATOM     10  C   UNL     1     -31.443 -13.057  14.191  0.00  0.00    +0.136 A 
ATOM     11  F   UNL     1     -31.526 -14.041  13.260  0.00  0.00    -0.205 F 
BRANCH   5  13
ATOM     12  N   UNL     1     -29.823 -15.062  16.864  0.00  0.00    -0.325 N 
ATOM     13  C   UNL     1     -29.876 -14.460  15.568  0.00  0.00    +0.244 C 
ATOM     14  O   UNL     1     -29.263 -15.011  14.615  0.00  0.00    -0.270 OA
ATOM     15  H   UNL     1     -29.331 -15.975  16.995  0.00  0.00    +0.145 HD
ATOM     16  H   UNL     1     -30.196 -14.577  17.709  0.00  0.00    +0.145 HD
ENDBRANCH   5  13
ENDBRANCH   1   7
BRANCH   2  17
ATOM     17  C   UNL     1     -32.090  -8.579  19.003  0.00  0.00    +0.079 A 
ATOM     18  C   UNL     1     -33.115  -7.626  19.133  0.00  0.00    +0.017 A 
ATOM     19  C   UNL     1     -32.986  -6.566  20.031  0.00  0.00    +0.001 A 
ATOM     20  C   UNL     1     -31.838  -6.451  20.814  0.00  0.00    +0.004 A 
ATOM     21  C   UNL     1     -30.820  -7.402  20.714  0.00  0.00    +0.046 A 
ATOM     22  C   UNL     1     -30.940  -8.484  19.818  0.00  0.00    +0.133 A 
BRANCH  22  23
ATOM     23  O   UNL     1     -29.965  -9.494  19.737  0.00  0.00    -0.491 OA
BRANCH  23  24
ATOM     24  C   UNL     1     -29.778 -10.551  20.678  0.00  0.00    +0.232 C 
BRANCH  24  25
ATOM     25  C   UNL     1     -29.642 -11.891  19.945  0.00  0.00    +0.027 C 
ATOM     26  C   UNL     1     -29.589 -13.128  20.830  0.00  0.00    +0.007 C 
ATOM     27  C   UNL     1     -30.855 -12.803  20.052  0.00  0.00    +0.007 C 
ENDBRANCH  24  25
ENDBRANCH  23  24
ENDBRANCH  22  23
ENDBRANCH   2  17
TORSDOF 6
ENDMDL
