MODEL 1
REMARK VINA RESULT:    -3.763      0.000      0.000
REMARK INTER + INTRA:          -5.269
REMARK INTER:                  -4.643
REMARK INTRA:                  -0.625
REMARK UNBOUND:                -0.625
REMARK  Name = 
REMARK  6 active torsions:
REMARK  status: ('A' for Active; 'I' for Inactive)
REMARK    1  A    between atoms: C_1  and  C_2
REMARK    2  A    between atoms: C_2  and  C_3
REMARK    3  A    between atoms: C_3  and  C_4
REMARK    4  A    between atoms: C_3  and  N_6
REMARK    5  A    between atoms: C_4  and  C_5
REMARK    6  A    between atoms: C_10  and  N_14
REMARK                            x       y       z     vdW  Elec       q    Type
REMARK                         _______ _______ _______ _____ _____    ______ ____
ROOT
ATOM      1  N   UNL     1     -31.235 -13.122  20.192  0.00  0.00    -0.311 N 
ATOM      2  C   UNL     1     -29.802 -13.127  20.186  0.00  0.00    +0.217 A 
ATOM      3  N   UNL     1     -29.109 -12.307  19.353  0.00  0.00    -0.221 NA
ATOM      4  C   UNL     1     -27.752 -12.304  19.340  0.00  0.00    +0.150 A 
ATOM      5  C   UNL     1     -27.034 -13.143  20.202  0.00  0.00    +0.184 A 
ATOM      6  C   UNL     1     -27.770 -14.007  21.042  0.00  0.00    +0.152 A 
ATOM      7  N   UNL     1     -27.129 -14.970  21.884  0.00  0.00    -0.341 N 
ATOM      8  N   UNL     1     -29.129 -13.967  21.014  0.00  0.00    -0.198 NA
ATOM      9  H   UNL     1     -31.724 -13.755  20.866  0.00  0.00    +0.149 HD
ATOM     10  H   UNL     1     -27.701 -15.538  22.548  0.00  0.00    +0.144 HD
ATOM     11  H   UNL     1     -26.122 -15.218  21.780  0.00  0.00    +0.144 HD
ENDROOT
BRANCH   5  12
ATOM     12  N   UNL     1     -25.599 -13.081  20.225  0.00  0.00    +0.061 N 
ATOM     13  O   UNL     1     -24.938 -12.203  19.397  0.00  0.00    -0.126 OA
ATOM     14  O   UNL     1     -24.957 -13.652  21.131  0.00  0.00    -0.126 OA
ENDBRANCH   5  12
BRANCH   1  15
ATOM     15  C   UNL     1     -32.023 -12.242  19.319  0.00  0.00    +0.073 C 
BRANCH  15  17
ATOM     16  C   UNL     1     -32.293 -12.153  16.775  0.00  0.00    +0.006 C 
ATOM     17  C   UNL     1     -32.429 -13.012  18.032  0.00  0.00    +0.019 C 
ENDBRANCH  15  17
BRANCH  15  18
ATOM     18  C   UNL     1     -33.250 -11.714  20.097  0.00  0.00    +0.019 C 
ATOM     19  C   UNL     1     -32.897 -10.625  21.109  0.00  0.00    +0.006 C 
ENDBRANCH  15  18
ENDBRANCH   1  15
TORSDOF 4
ENDMDL
MODEL 2
REMARK VINA RESULT:    -3.643      1.921      2.238
REMARK INTER + INTRA:          -5.121
REMARK INTER:                  -4.508
REMARK INTRA:                  -0.613
REMARK UNBOUND:                -0.625
REMARK  Name = 
REMARK  6 active torsions:
REMARK  status: ('A' for Active; 'I' for Inactive)
REMARK    1  A    between atoms: C_1  and  C_2
REMARK    2  A    between atoms: C_2  and  C_3
REMARK    3  A    between atoms: C_3  and  C_4
REMARK    4  A    between atoms: C_3  and  N_6
REMARK    5  A    between atoms: C_4  and  C_5
REMARK    6  A    between atoms: C_10  and  N_14
REMARK                            x       y       z     vdW  Elec       q    Type
REMARK                         _______ _______ _______ _____ _____    ______ ____
ROOT
ATOM      1  N   UNL     1     -30.650 -11.519  18.242  0.00  0.00    -0.311 N 
ATOM      2  C   UNL     1     -29.442 -12.023  18.827  0.00  0.00    +0.217 A 
ATOM      3  N   UNL     1     -28.229 -11.621  18.366  0.00  0.00    -0.221 NA
ATOM      4  C   UNL     1     -27.080 -12.092  18.913  0.00  0.00    +0.150 A 
ATOM      5  C   UNL     1     -27.123 -12.999  19.979  0.00  0.00    +0.184 A 
ATOM      6  C   UNL     1     -28.392 -13.427  20.427  0.00  0.00    +0.152 A 
ATOM      7  N   UNL     1     -28.540 -14.425  21.442  0.00  0.00    -0.341 N 
ATOM      8  N   UNL     1     -29.511 -12.920  19.843  0.00  0.00    -0.198 NA
ATOM      9  H   UNL     1     -31.560 -11.841  18.645  0.00  0.00    +0.149 HD
ATOM     10  H   UNL     1     -29.491 -14.660  21.802  0.00  0.00    +0.144 HD
ATOM     11  H   UNL     1     -27.744 -15.020  21.757  0.00  0.00    +0.144 HD
ENDROOT
BRANCH   5  12
ATOM     12  N   UNL     1     -25.900 -13.438  20.592  0.00  0.00    +0.061 N 
ATOM     13  O   UNL     1     -25.859 -13.681  21.946  0.00  0.00    -0.126 OA
ATOM     14  O   UNL     1     -24.938 -13.805  19.886  0.00  0.00    -0.126 OA
ENDBRANCH   5  12
BRANCH   1  15
ATOM     15  C   UNL     1     -30.646 -10.551  17.138  0.00  0.00    +0.073 C 
BRANCH  15  17
ATOM     16  C   UNL     1     -32.199 -10.659  15.105  0.00  0.00    +0.006 C 
ATOM     17  C   UNL     1     -30.989 -11.276  15.807  0.00  0.00    +0.019 C 
ENDBRANCH  15  17
BRANCH  15  18
ATOM     18  C   UNL     1     -31.638  -9.408  17.454  0.00  0.00    +0.019 C 
ATOM     19  C   UNL     1     -31.488  -8.856  18.870  0.00  0.00    +0.006 C 
ENDBRANCH  15  18
ENDBRANCH   1  15
TORSDOF 4
ENDMDL
MODEL 3
REMARK VINA RESULT:    -3.575      3.383      4.735
REMARK INTER + INTRA:          -5.036
REMARK INTER:                  -4.412
REMARK INTRA:                  -0.624
REMARK UNBOUND:                -0.625
REMARK  Name = 
REMARK  6 active torsions:
REMARK  status: ('A' for Active; 'I' for Inactive)
REMARK    1  A    between atoms: C_1  and  C_2
REMARK    2  A    between atoms: C_2  and  C_3
REMARK    3  A    between atoms: C_3  and  C_4
REMARK    4  A    between atoms: C_3  and  N_6
REMARK    5  A    between atoms: C_4  and  C_5
REMARK    6  A    between atoms: C_10  and  N_14
REMARK                            x       y       z     vdW  Elec       q    Type
REMARK                         _______ _______ _______ _____ _____    ______ ____
ROOT
ATOM      1  N   UNL     1     -31.698 -12.946  14.815  0.00  0.00    -0.311 N 
ATOM      2  C   UNL     1     -30.925 -12.495  15.935  0.00  0.00    +0.217 A 
ATOM      3  N   UNL     1     -30.686 -11.172  16.125  0.00  0.00    -0.221 NA
ATOM      4  C   UNL     1     -29.955 -10.735  17.181  0.00  0.00    +0.150 A 
ATOM      5  C   UNL     1     -29.440 -11.648  18.111  0.00  0.00    +0.184 A 
ATOM      6  C   UNL     1     -29.675 -13.021  17.883  0.00  0.00    +0.152 A 
ATOM      7  N   UNL     1     -29.108 -14.035  18.719  0.00  0.00    -0.341 N 
ATOM      8  N   UNL     1     -30.416 -13.402  16.808  0.00  0.00    -0.198 NA
ATOM      9  H   UNL     1     -31.874 -13.972  14.723  0.00  0.00    +0.149 HD
ATOM     10  H   UNL     1     -29.367 -15.035  18.567  0.00  0.00    +0.144 HD
ATOM     11  H   UNL     1     -28.348 -13.831  19.403  0.00  0.00    +0.144 HD
ENDROOT
BRANCH   5  12
ATOM     12  N   UNL     1     -28.726 -11.167  19.261  0.00  0.00    +0.061 N 
ATOM     13  O   UNL     1     -29.382 -10.423  20.214  0.00  0.00    -0.126 OA
ATOM     14  O   UNL     1     -27.579 -11.591  19.514  0.00  0.00    -0.126 OA
ENDBRANCH   5  12
BRANCH   1  15
ATOM     15  C   UNL     1     -32.273 -12.019  13.831  0.00  0.00    +0.073 C 
BRANCH  15  17
ATOM     16  C   UNL     1     -33.243 -13.443  11.938  0.00  0.00    +0.006 C 
ATOM     17  C   UNL     1     -32.066 -12.584  12.399  0.00  0.00    +0.019 C 
ENDBRANCH  15  17
BRANCH  15  18
ATOM     18  C   UNL     1     -33.766 -11.785  14.157  0.00  0.00    +0.019 C 
ATOM     19  C   UNL     1     -34.107 -10.314  14.389  0.00  0.00    +0.006 C 
ENDBRANCH  15  18
ENDBRANCH   1  15
TORSDOF 4
ENDMDL
MODEL 4
REMARK VINA RESULT:    -3.535      3.965      5.498
REMARK INTER + INTRA:          -4.987
REMARK INTER:                  -4.452
REMARK INTRA:                  -0.534
REMARK UNBOUND:                -0.625
REMARK  Name = 
REMARK  6 active torsions:
REMARK  status: ('A' for Active; 'I' for Inactive)
REMARK    1  A    between atoms: C_1  and  C_2
REMARK    2  A    between atoms: C_2  and  C_3
REMARK    3  A    between atoms: C_3  and  C_4
REMARK    4  A    between atoms: C_3  and  N_6
REMARK    5  A    between atoms: C_4  and  C_5
REMARK    6  A    between atoms: C_10  and  N_14
REMARK                            x       y       z     vdW  Elec       q    Type
REMARK                         _______ _______ _______ _____ _____    ______ ____
ROOT
ATOM      1  N   UNL     1     -29.130 -14.028  14.897  0.00  0.00    -0.311 N 
ATOM      2  C   UNL     1     -29.417 -13.819  16.286  0.00  0.00    +0.217 A 
ATOM      3  N   UNL     1     -30.668 -14.025  16.774  0.00  0.00    -0.221 NA
ATOM      4  C   UNL     1     -30.950 -13.830  18.086  0.00  0.00    +0.150 A 
ATOM      5  C   UNL     1     -29.945 -13.422  18.974  0.00  0.00    +0.184 A 
ATOM      6  C   UNL     1     -28.657 -13.187  18.444  0.00  0.00    +0.152 A 
ATOM      7  N   UNL     1     -27.590 -12.674  19.248  0.00  0.00    -0.341 N 
ATOM      8  N   UNL     1     -28.431 -13.400  17.120  0.00  0.00    -0.198 NA
ATOM      9  H   UNL     1     -28.147 -13.878  14.572  0.00  0.00    +0.149 HD
ATOM     10  H   UNL     1     -26.633 -12.586  18.842  0.00  0.00    +0.144 HD
ATOM     11  H   UNL     1     -27.754 -12.267  20.194  0.00  0.00    +0.144 HD
ENDROOT
BRANCH   5  12
ATOM     12  N   UNL     1     -30.242 -13.285  20.372  0.00  0.00    +0.061 N 
ATOM     13  O   UNL     1     -29.263 -13.529  21.308  0.00  0.00    -0.126 OA
ATOM     14  O   UNL     1     -31.305 -12.744  20.741  0.00  0.00    -0.126 OA
ENDBRANCH   5  12
BRANCH   1  15
ATOM     15  C   UNL     1     -30.151 -14.476  13.941  0.00  0.00    +0.073 C 
BRANCH  15  17
ATOM     16  C   UNL     1     -31.923 -13.562  12.336  0.00  0.00    +0.006 C 
ATOM     17  C   UNL     1     -31.093 -13.291  13.591  0.00  0.00    +0.019 C 
ENDBRANCH  15  17
BRANCH  15  18
ATOM     18  C   UNL     1     -29.458 -15.062  12.689  0.00  0.00    +0.019 C 
ATOM     19  C   UNL     1     -27.967 -14.739  12.620  0.00  0.00    +0.006 C 
ENDBRANCH  15  18
ENDBRANCH   1  15
TORSDOF 4
ENDMDL
MODEL 5
REMARK VINA RESULT:    -3.532      3.642      5.139
REMARK INTER + INTRA:          -4.983
REMARK INTER:                  -4.335
REMARK INTRA:                  -0.648
REMARK UNBOUND:                -0.625
REMARK  Name = 
REMARK  6 active torsions:
REMARK  status: ('A' for Active; 'I' for Inactive)
REMARK    1  A    between atoms: C_1  and  C_2
REMARK    2  A    between atoms: C_2  and  C_3
REMARK    3  A    between atoms: C_3  and  C_4
REMARK    4  A    between atoms: C_3  and  N_6
REMARK    5  A    between atoms: C_4  and  C_5
REMARK    6  A    between atoms: C_10  and  N_14
REMARK                            x       y       z     vdW  Elec       q    Type
REMARK                         _______ _______ _______ _____ _____    ______ ____
ROOT
ATOM      1  N   UNL     1     -30.978 -14.118  15.398  0.00  0.00    -0.311 N 
ATOM      2  C   UNL     1     -30.634 -13.387  16.582  0.00  0.00    +0.217 A 
ATOM      3  N   UNL     1     -30.072 -12.153  16.496  0.00  0.00    -0.221 NA
ATOM      4  C   UNL     1     -29.743 -11.453  17.611  0.00  0.00    +0.150 A 
ATOM      5  C   UNL     1     -29.990 -11.989  18.882  0.00  0.00    +0.184 A 
ATOM      6  C   UNL     1     -30.549 -13.283  18.952  0.00  0.00    +0.152 A 
ATOM      7  N   UNL     1     -30.747 -13.956  20.199  0.00  0.00    -0.341 N 
ATOM      8  N   UNL     1     -30.861 -13.939  17.802  0.00  0.00    -0.198 NA
ATOM      9  H   UNL     1     -31.428 -15.055  15.514  0.00  0.00    +0.149 HD
ATOM     10  H   UNL     1     -31.234 -14.879  20.218  0.00  0.00    +0.144 HD
ATOM     11  H   UNL     1     -30.316 -13.618  21.087  0.00  0.00    +0.144 HD
ENDROOT
BRANCH   5  12
ATOM     12  N   UNL     1     -29.698 -11.208  20.052  0.00  0.00    +0.061 N 
ATOM     13  O   UNL     1     -29.214 -11.824  21.183  0.00  0.00    -0.126 OA
ATOM     14  O   UNL     1     -29.675  -9.962  19.989  0.00  0.00    -0.126 OA
ENDBRANCH   5  12
BRANCH   1  15
ATOM     15  C   UNL     1     -30.754 -13.582  14.049  0.00  0.00    +0.073 C 
BRANCH  15  17
ATOM     16  C   UNL     1     -28.570 -14.701  13.319  0.00  0.00    +0.006 C 
ATOM     17  C   UNL     1     -30.090 -14.668  13.159  0.00  0.00    +0.019 C 
ENDBRANCH  15  17
BRANCH  15  18
ATOM     18  C   UNL     1     -32.098 -13.088  13.464  0.00  0.00    +0.019 C 
ATOM     19  C   UNL     1     -32.285 -13.458  11.994  0.00  0.00    +0.006 C 
ENDBRANCH  15  18
ENDBRANCH   1  15
TORSDOF 4
ENDMDL
MODEL 6
REMARK VINA RESULT:    -3.462      5.000      6.776
REMARK INTER + INTRA:          -4.896
REMARK INTER:                  -4.653
REMARK INTRA:                  -0.244
REMARK UNBOUND:                -0.625
REMARK  Name = 
REMARK  6 active torsions:
REMARK  status: ('A' for Active; 'I' for Inactive)
REMARK    1  A    between atoms: C_1  and  C_2
REMARK    2  A    between atoms: C_2  and  C_3
REMARK    3  A    between atoms: C_3  and  C_4
REMARK    4  A    between atoms: C_3  and  N_6
REMARK    5  A    between atoms: C_4  and  C_5
REMARK    6  A    between atoms: C_10  and  N_14
REMARK                            x       y       z     vdW  Elec       q    Type
REMARK                         _______ _______ _______ _____ _____    ______ ____
ROOT
ATOM      1  N   UNL     1     -32.103 -11.861  14.026  0.00  0.00    -0.311 N 
ATOM      2  C   UNL     1     -31.762 -11.123  15.206  0.00  0.00    +0.217 A 
ATOM      3  N   UNL     1     -30.647 -11.432  15.919  0.00  0.00    -0.221 NA
ATOM      4  C   UNL     1     -30.315 -10.740  17.037  0.00  0.00    +0.150 A 
ATOM      5  C   UNL     1     -31.115  -9.676  17.475  0.00  0.00    +0.184 A 
ATOM      6  C   UNL     1     -32.284  -9.386  16.738  0.00  0.00    +0.152 A 
ATOM      7  N   UNL     1     -33.217  -8.386  17.160  0.00  0.00    -0.341 N 
ATOM      8  N   UNL     1     -32.567 -10.113  15.623  0.00  0.00    -0.198 NA
ATOM      9  H   UNL     1     -32.959 -11.573  13.499  0.00  0.00    +0.149 HD
ATOM     10  H   UNL     1     -34.029  -8.146  16.549  0.00  0.00    +0.144 HD
ATOM     11  H   UNL     1     -33.188  -7.967  18.114  0.00  0.00    +0.144 HD
ENDROOT
BRANCH   5  12
ATOM     12  N   UNL     1     -30.715  -8.909  18.622  0.00  0.00    +0.061 N 
ATOM     13  O   UNL     1     -31.576  -7.979  19.159  0.00  0.00    -0.126 OA
ATOM     14  O   UNL     1     -29.692  -9.223  19.265  0.00  0.00    -0.126 OA
ENDBRANCH   5  12
BRANCH   1  15
ATOM     15  C   UNL     1     -31.279 -12.968  13.524  0.00  0.00    +0.073 C 
BRANCH  15  17
ATOM     16  C   UNL     1     -29.824 -14.772  14.612  0.00  0.00    +0.006 C 
ATOM     17  C   UNL     1     -31.189 -14.083  14.602  0.00  0.00    +0.019 C 
ENDBRANCH  15  17
BRANCH  15  18
ATOM     18  C   UNL     1     -31.873 -13.487  12.193  0.00  0.00    +0.019 C 
ATOM     19  C   UNL     1     -33.318 -13.047  11.969  0.00  0.00    +0.006 C 
ENDBRANCH  15  18
ENDBRANCH   1  15
TORSDOF 4
ENDMDL
MODEL 7
REMARK VINA RESULT:    -3.301      5.459      7.092
REMARK INTER + INTRA:          -4.698
REMARK INTER:                  -4.044
REMARK INTRA:                  -0.654
REMARK UNBOUND:                -0.625
REMARK  Name = 
REMARK  6 active torsions:
REMARK  status: ('A' for Active; 'I' for Inactive)
REMARK    1  A    between atoms: C_1  and  C_2
REMARK    2  A    between atoms: C_2  and  C_3
REMARK    3  A    between atoms: C_3  and  C_4
REMARK    4  A    between atoms: C_3  and  N_6
REMARK    5  A    between atoms: C_4  and  C_5
REMARK    6  A    between atoms: C_10  and  N_14
REMARK                            x       y       z     vdW  Elec       q    Type
REMARK                         _______ _______ _______ _____ _____    ______ ____
ROOT
ATOM      1  N   UNL     1     -31.694 -11.914  13.926  0.00  0.00    -0.311 N 
ATOM      2  C   UNL     1     -32.084 -11.612  15.272  0.00  0.00    +0.217 A 
ATOM      3  N   UNL     1     -32.564 -12.585  16.089  0.00  0.00    -0.221 NA
ATOM      4  C   UNL     1     -32.936 -12.310  17.364  0.00  0.00    +0.150 A 
ATOM      5  C   UNL     1     -32.820 -11.009  17.871  0.00  0.00    +0.184 A 
ATOM      6  C   UNL     1     -32.345 -10.004  16.999  0.00  0.00    +0.152 A 
ATOM      7  N   UNL     1     -32.284  -8.630  17.390  0.00  0.00    -0.341 N 
ATOM      8  N   UNL     1     -31.984 -10.338  15.730  0.00  0.00    -0.198 NA
ATOM      9  H   UNL     1     -31.310 -11.136  13.342  0.00  0.00    +0.149 HD
ATOM     10  H   UNL     1     -31.855  -7.928  16.748  0.00  0.00    +0.144 HD
ATOM     11  H   UNL     1     -32.761  -8.274  18.246  0.00  0.00    +0.144 HD
ENDROOT
BRANCH   5  12
ATOM     12  N   UNL     1     -33.154 -10.746  19.243  0.00  0.00    +0.061 N 
ATOM     13  O   UNL     1     -33.840  -9.600  19.574  0.00  0.00    -0.126 OA
ATOM     14  O   UNL     1     -33.022 -11.638  20.106  0.00  0.00    -0.126 OA
ENDBRANCH   5  12
BRANCH   1  15
ATOM     15  C   UNL     1     -31.781 -13.269  13.366  0.00  0.00    +0.073 C 
BRANCH  15  17
ATOM     16  C   UNL     1     -33.803 -12.616  11.938  0.00  0.00    +0.006 C 
ATOM     17  C   UNL     1     -32.392 -13.205  11.939  0.00  0.00    +0.019 C 
ENDBRANCH  15  17
BRANCH  15  18
ATOM     18  C   UNL     1     -30.377 -13.917  13.372  0.00  0.00    +0.019 C 
ATOM     19  C   UNL     1     -30.143 -14.830  14.575  0.00  0.00    +0.006 C 
ENDBRANCH  15  18
ENDBRANCH   1  15
TORSDOF 4
ENDMDL
MODEL 8
REMARK VINA RESULT:    -3.264      2.224      3.678
REMARK INTER + INTRA:          -4.653
REMARK INTER:                  -3.983
REMARK INTRA:                  -0.670
REMARK UNBOUND:                -0.625
REMARK  Name = 
REMARK  6 active torsions:
REMARK  status: ('A' for Active; 'I' for Inactive)
REMARK    1  A    between atoms: C_1  and  C_2
REMARK    2  A    between atoms: C_2  and  C_3
REMARK    3  A    between atoms: C_3  and  C_4
REMARK    4  A    between atoms: C_3  and  N_6
REMARK    5  A    between atoms: C_4  and  C_5
REMARK    6  A    between atoms: C_10  and  N_14
REMARK                            x       y       z     vdW  Elec       q    Type
REMARK                         _______ _______ _______ _____ _____    ______ ____
ROOT
ATOM      1  N   UNL     1     -30.162  -9.910  17.282  0.00  0.00    -0.311 N 
ATOM      2  C   UNL     1     -29.355 -10.845  18.008  0.00  0.00    +0.217 A 
ATOM      3  N   UNL     1     -29.928 -11.794  18.794  0.00  0.00    -0.221 NA
ATOM      4  C   UNL     1     -29.173 -12.684  19.485  0.00  0.00    +0.150 A 
ATOM      5  C   UNL     1     -27.775 -12.649  19.392  0.00  0.00    +0.184 A 
ATOM      6  C   UNL     1     -27.195 -11.640  18.593  0.00  0.00    +0.152 A 
ATOM      7  N   UNL     1     -25.778 -11.459  18.512  0.00  0.00    -0.341 N 
ATOM      8  N   UNL     1     -28.001 -10.775  17.920  0.00  0.00    -0.198 NA
ATOM      9  H   UNL     1     -29.676  -9.212  16.674  0.00  0.00    +0.149 HD
ATOM     10  H   UNL     1     -25.383 -10.754  17.852  0.00  0.00    +0.144 HD
ATOM     11  H   UNL     1     -25.120 -11.921  19.176  0.00  0.00    +0.144 HD
ENDROOT
BRANCH   5  12
ATOM     12  N   UNL     1     -26.991 -13.639  20.076  0.00  0.00    +0.061 N 
ATOM     13  O   UNL     1     -27.599 -14.515  20.945  0.00  0.00    -0.126 OA
ATOM     14  O   UNL     1     -25.809 -13.854  19.734  0.00  0.00    -0.126 OA
ENDBRANCH   5  12
BRANCH   1  15
ATOM     15  C   UNL     1     -31.630  -9.928  17.338  0.00  0.00    +0.073 C 
BRANCH  15  17
ATOM     16  C   UNL     1     -33.182  -9.346  19.289  0.00  0.00    +0.006 C 
ATOM     17  C   UNL     1     -32.129  -8.824  18.311  0.00  0.00    +0.019 C 
ENDBRANCH  15  17
BRANCH  15  18
ATOM     18  C   UNL     1     -32.199  -9.751  15.911  0.00  0.00    +0.019 C 
ATOM     19  C   UNL     1     -31.887 -10.928  14.989  0.00  0.00    +0.006 C 
ENDBRANCH  15  18
ENDBRANCH   1  15
TORSDOF 4
ENDMDL
MODEL 9
REMARK VINA RESULT:    -3.120      3.557      5.139
REMARK INTER + INTRA:          -4.475
REMARK INTER:                  -3.806
REMARK INTRA:                  -0.669
REMARK UNBOUND:                -0.625
REMARK  Name = 
REMARK  6 active torsions:
REMARK  status: ('A' for Active; 'I' for Inactive)
REMARK    1  A    between atoms: C_1  and  C_2
REMARK    2  A    between atoms: C_2  and  C_3
REMARK    3  A    between atoms: C_3  and  C_4
REMARK    4  A    between atoms: C_3  and  N_6
REMARK    5  A    between atoms: C_4  and  C_5
REMARK    6  A    between atoms: C_10  and  N_14
REMARK                            x       y       z     vdW  Elec       q    Type
REMARK                         _______ _______ _______ _____ _____    ______ ____
ROOT
ATOM      1  N   UNL     1     -32.643 -12.559  15.508  0.00  0.00    -0.311 N 
ATOM      2  C   UNL     1     -31.900 -11.910  16.547  0.00  0.00    +0.217 A 
ATOM      3  N   UNL     1     -31.245 -10.744  16.307  0.00  0.00    -0.221 NA
ATOM      4  C   UNL     1     -30.539 -10.121  17.284  0.00  0.00    +0.150 A 
ATOM      5  C   UNL     1     -30.482 -10.666  18.573  0.00  0.00    +0.184 A 
ATOM      6  C   UNL     1     -31.146 -11.892  18.798  0.00  0.00    +0.152 A 
ATOM      7  N   UNL     1     -31.064 -12.578  20.051  0.00  0.00    -0.341 N 
ATOM      8  N   UNL     1     -31.840 -12.472  17.782  0.00  0.00    -0.198 NA
ATOM      9  H   UNL     1     -33.147 -13.443  15.746  0.00  0.00    +0.149 HD
ATOM     10  H   UNL     1     -31.630 -13.442  20.206  0.00  0.00    +0.144 HD
ATOM     11  H   UNL     1     -30.367 -12.320  20.782  0.00  0.00    +0.144 HD
ENDROOT
BRANCH   5  12
ATOM     12  N   UNL     1     -29.787  -9.961  19.615  0.00  0.00    +0.061 N 
ATOM     13  O   UNL     1     -29.967  -8.605  19.763  0.00  0.00    -0.126 OA
ATOM     14  O   UNL     1     -29.194 -10.591  20.515  0.00  0.00    -0.126 OA
ENDBRANCH   5  12
BRANCH   1  15
ATOM     15  C   UNL     1     -32.744 -12.008  14.150  0.00  0.00    +0.073 C 
BRANCH  15  17
ATOM     16  C   UNL     1     -33.285 -13.211  11.956  0.00  0.00    +0.006 C 
ATOM     17  C   UNL     1     -32.299 -13.080  13.117  0.00  0.00    +0.019 C 
ENDBRANCH  15  17
BRANCH  15  18
ATOM     18  C   UNL     1     -34.190 -11.520  13.901  0.00  0.00    +0.019 C 
ATOM     19  C   UNL     1     -34.386 -10.039  14.218  0.00  0.00    +0.006 C 
ENDBRANCH  15  18
ENDBRANCH   1  15
TORSDOF 4
ENDMDL
