MODEL 1
REMARK VINA RESULT:    -4.424      0.000      0.000
REMARK INTER + INTRA:          -6.820
REMARK INTER:                  -5.587
REMARK INTRA:                  -1.232
REMARK UNBOUND:                -1.232
REMARK  Name = 
REMARK  5 active torsions:
REMARK  status: ('A' for Active; 'I' for Inactive)
REMARK    1  A    between atoms: C_2  and  O_3
REMARK    2  A    between atoms: C_2  and  C_4
REMARK    3  A    between atoms: C_9  and  N_10
REMARK    4  A    between atoms: N_10  and  C_11
REMARK    5  A    between atoms: C_11  and  C_12
REMARK                            x       y       z     vdW  Elec       q    Type
REMARK                         _______ _______ _______ _____ _____    ______ ____
ROOT
ATOM      1  C   UNL     1     -30.533 -14.260  15.540  0.00  0.00    +0.080 A 
ATOM      2  C   UNL     1     -29.434 -15.021  15.095  0.00  0.00    +0.017 A 
ATOM      3  C   UNL     1     -29.097 -15.061  13.742  0.00  0.00    +0.001 A 
ATOM      4  C   UNL     1     -29.845 -14.341  12.814  0.00  0.00    +0.002 A 
ATOM      5  C   UNL     1     -30.925 -13.566  13.236  0.00  0.00    +0.024 A 
ATOM      6  C   UNL     1     -31.280 -13.505  14.597  0.00  0.00    +0.041 A 
ENDROOT
BRANCH   1   8
ATOM      7  O   UNL     1     -32.059 -13.987  17.343  0.00  0.00    -0.245 OA
ATOM      8  C   UNL     1     -30.900 -14.317  16.974  0.00  0.00    +0.339 C 
BRANCH   8   9
ATOM      9  O   UNL     1     -29.961 -14.687  17.933  0.00  0.00    -0.477 OA
ATOM     10  H   UNL     1     -28.982 -14.781  17.694  0.00  0.00    +0.295 HD
ENDBRANCH   8   9
ENDBRANCH   1   8
BRANCH   6  11
ATOM     11  N   UNL     1     -32.333 -12.621  15.029  0.00  0.00    -0.339 N 
ATOM     12  H   UNL     1     -33.132 -13.015  15.574  0.00  0.00    +0.146 HD
BRANCH  11  13
ATOM     13  C   UNL     1     -32.315 -11.173  14.821  0.00  0.00    +0.138 C 
BRANCH  13  14
ATOM     14  C   UNL     1     -31.942 -10.460  16.094  0.00  0.00    -0.012 A 
ATOM     15  C   UNL     1     -30.624 -10.484  16.574  0.00  0.00    +0.008 A 
ATOM     16  C   UNL     1     -30.297  -9.811  17.752  0.00  0.00    +0.020 A 
ATOM     17  C   UNL     1     -31.291  -9.111  18.438  0.00  0.00    +0.111 A 
ATOM     18  N   UNL     1     -32.561  -9.085  17.956  0.00  0.00    -0.263 NA
ATOM     19  C   UNL     1     -32.906  -9.734  16.812  0.00  0.00    +0.115 A 
ENDBRANCH  13  14
ENDBRANCH  11  13
ENDBRANCH   6  11
TORSDOF 5
ENDMDL
MODEL 2
REMARK VINA RESULT:    -4.354      4.342      5.761
REMARK INTER + INTRA:          -6.732
REMARK INTER:                  -5.909
REMARK INTRA:                  -0.823
REMARK UNBOUND:                -1.232
REMARK  Name = 
REMARK  5 active torsions:
REMARK  status: ('A' for Active; 'I' for Inactive)
REMARK    1  A    between atoms: C_2  and  O_3
REMARK    2  A    between atoms: C_2  and  C_4
REMARK    3  A    between atoms: C_9  and  N_10
REMARK    4  A    between atoms: N_10  and  C_11
REMARK    5  A    between atoms: C_11  and  C_12
REMARK                            x       y       z     vdW  Elec       q    Type
REMARK                         _______ _______ _______ _____ _____    ______ ____
ROOT
ATOM      1  C   UNL     1     -30.619 -12.593  16.942  0.00  0.00    +0.080 A 
ATOM      2  C   UNL     1     -31.358 -12.034  15.881  0.00  0.00    +0.017 A 
ATOM      3  C   UNL     1     -31.342 -10.659  15.649  0.00  0.00    +0.001 A 
ATOM      4  C   UNL     1     -30.589  -9.821  16.468  0.00  0.00    +0.002 A 
ATOM      5  C   UNL     1     -29.835 -10.357  17.512  0.00  0.00    +0.024 A 
ATOM      6  C   UNL     1     -29.830 -11.743  17.760  0.00  0.00    +0.041 A 
ENDROOT
BRANCH   1   8
ATOM      7  O   UNL     1     -30.706 -14.862  16.235  0.00  0.00    -0.245 OA
ATOM      8  C   UNL     1     -30.735 -14.048  17.197  0.00  0.00    +0.339 C 
BRANCH   8   9
ATOM      9  O   UNL     1     -30.924 -14.530  18.489  0.00  0.00    -0.477 OA
ATOM     10  H   UNL     1     -31.278 -15.465  18.649  0.00  0.00    +0.295 HD
ENDBRANCH   8   9
ENDBRANCH   1   8
BRANCH   6  11
ATOM     11  N   UNL     1     -28.967 -12.290  18.777  0.00  0.00    -0.339 N 
ATOM     12  H   UNL     1     -29.384 -12.890  19.523  0.00  0.00    +0.146 HD
BRANCH  11  13
ATOM     13  C   UNL     1     -27.514 -12.125  18.785  0.00  0.00    +0.138 C 
BRANCH  13  14
ATOM     14  C   UNL     1     -26.891 -12.973  19.862  0.00  0.00    -0.012 A 
ATOM     15  C   UNL     1     -27.687 -13.735  20.730  0.00  0.00    +0.008 A 
ATOM     16  C   UNL     1     -27.090 -14.521  21.717  0.00  0.00    +0.020 A 
ATOM     17  C   UNL     1     -25.698 -14.544  21.824  0.00  0.00    +0.111 A 
ATOM     18  N   UNL     1     -24.938 -13.810  20.970  0.00  0.00    -0.263 NA
ATOM     19  C   UNL     1     -25.495 -13.035  20.001  0.00  0.00    +0.115 A 
ENDBRANCH  13  14
ENDBRANCH  11  13
ENDBRANCH   6  11
TORSDOF 5
ENDMDL
MODEL 3
REMARK VINA RESULT:    -4.240      2.323      5.512
REMARK INTER + INTRA:          -6.587
REMARK INTER:                  -5.587
REMARK INTRA:                  -1.000
REMARK UNBOUND:                -1.232
REMARK  Name = 
REMARK  5 active torsions:
REMARK  status: ('A' for Active; 'I' for Inactive)
REMARK    1  A    between atoms: C_2  and  O_3
REMARK    2  A    between atoms: C_2  and  C_4
REMARK    3  A    between atoms: C_9  and  N_10
REMARK    4  A    between atoms: N_10  and  C_11
REMARK    5  A    between atoms: C_11  and  C_12
REMARK                            x       y       z     vdW  Elec       q    Type
REMARK                         _______ _______ _______ _____ _____    ______ ____
ROOT
ATOM      1  C   UNL     1     -29.297 -11.660  17.692  0.00  0.00    +0.080 A 
ATOM      2  C   UNL     1     -29.457 -10.262  17.756  0.00  0.00    +0.017 A 
ATOM      3  C   UNL     1     -30.476  -9.628  17.044  0.00  0.00    +0.001 A 
ATOM      4  C   UNL     1     -31.353 -10.377  16.263  0.00  0.00    +0.002 A 
ATOM      5  C   UNL     1     -31.224 -11.764  16.202  0.00  0.00    +0.024 A 
ATOM      6  C   UNL     1     -30.207 -12.426  16.917  0.00  0.00    +0.041 A 
ENDROOT
BRANCH   1   8
ATOM      7  O   UNL     1     -27.404 -11.567  19.129  0.00  0.00    -0.245 OA
ATOM      8  C   UNL     1     -28.150 -12.275  18.399  0.00  0.00    +0.339 C 
BRANCH   8   9
ATOM      9  O   UNL     1     -27.852 -13.624  18.230  0.00  0.00    -0.477 OA
ATOM     10  H   UNL     1     -28.545 -14.338  18.417  0.00  0.00    +0.295 HD
ENDBRANCH   8   9
ENDBRANCH   1   8
BRANCH   6  11
ATOM     11  N   UNL     1     -30.150 -13.866  16.924  0.00  0.00    -0.339 N 
ATOM     12  H   UNL     1     -29.753 -14.352  17.759  0.00  0.00    +0.146 HD
BRANCH  11  13
ATOM     13  C   UNL     1     -30.695 -14.706  15.857  0.00  0.00    +0.138 C 
BRANCH  13  14
ATOM     14  C   UNL     1     -29.793 -14.680  14.651  0.00  0.00    -0.012 A 
ATOM     15  C   UNL     1     -30.309 -14.433  13.370  0.00  0.00    +0.008 A 
ATOM     16  C   UNL     1     -29.456 -14.405  12.266  0.00  0.00    +0.020 A 
ATOM     17  C   UNL     1     -28.089 -14.619  12.453  0.00  0.00    +0.111 A 
ATOM     18  N   UNL     1     -27.600 -14.847  13.700  0.00  0.00    -0.263 NA
ATOM     19  C   UNL     1     -28.411 -14.880  14.791  0.00  0.00    +0.115 A 
ENDBRANCH  13  14
ENDBRANCH  11  13
ENDBRANCH   6  11
TORSDOF 5
ENDMDL
MODEL 4
REMARK VINA RESULT:    -4.184      2.994      5.819
REMARK INTER + INTRA:          -6.517
REMARK INTER:                  -5.608
REMARK INTRA:                  -0.910
REMARK UNBOUND:                -1.232
REMARK  Name = 
REMARK  5 active torsions:
REMARK  status: ('A' for Active; 'I' for Inactive)
REMARK    1  A    between atoms: C_2  and  O_3
REMARK    2  A    between atoms: C_2  and  C_4
REMARK    3  A    between atoms: C_9  and  N_10
REMARK    4  A    between atoms: N_10  and  C_11
REMARK    5  A    between atoms: C_11  and  C_12
REMARK                            x       y       z     vdW  Elec       q    Type
REMARK                         _______ _______ _______ _____ _____    ______ ____
ROOT
ATOM      1  C   UNL     1     -28.981 -12.439  19.858  0.00  0.00    +0.080 A 
ATOM      2  C   UNL     1     -29.171 -11.444  20.837  0.00  0.00    +0.017 A 
ATOM      3  C   UNL     1     -30.456 -11.069  21.230  0.00  0.00    +0.001 A 
ATOM      4  C   UNL     1     -31.568 -11.681  20.658  0.00  0.00    +0.002 A 
ATOM      5  C   UNL     1     -31.401 -12.682  19.702  0.00  0.00    +0.024 A 
ATOM      6  C   UNL     1     -30.114 -13.082  19.294  0.00  0.00    +0.041 A 
ENDROOT
BRANCH   1   8
ATOM      7  O   UNL     1     -26.796 -11.803  19.165  0.00  0.00    -0.245 OA
ATOM      8  C   UNL     1     -27.599 -12.742  19.416  0.00  0.00    +0.339 C 
BRANCH   8   9
ATOM      9  O   UNL     1     -27.187 -14.058  19.227  0.00  0.00    -0.477 OA
ATOM     10  H   UNL     1     -26.524 -14.491  19.858  0.00  0.00    +0.295 HD
ENDBRANCH   8   9
ENDBRANCH   1   8
BRANCH   6  11
ATOM     11  N   UNL     1     -29.956 -14.186  18.381  0.00  0.00    -0.339 N 
ATOM     12  H   UNL     1     -29.080 -14.753  18.421  0.00  0.00    +0.146 HD
BRANCH  11  13
ATOM     13  C   UNL     1     -30.993 -14.621  17.445  0.00  0.00    +0.138 C 
BRANCH  13  14
ATOM     14  C   UNL     1     -30.551 -14.394  16.024  0.00  0.00    -0.012 A 
ATOM     15  C   UNL     1     -29.358 -14.953  15.542  0.00  0.00    +0.008 A 
ATOM     16  C   UNL     1     -28.970 -14.738  14.219  0.00  0.00    +0.020 A 
ATOM     17  C   UNL     1     -29.782 -13.969  13.384  0.00  0.00    +0.111 A 
ATOM     18  N   UNL     1     -30.941 -13.442  13.859  0.00  0.00    -0.263 NA
ATOM     19  C   UNL     1     -31.341 -13.636  15.145  0.00  0.00    +0.115 A 
ENDBRANCH  13  14
ENDBRANCH  11  13
ENDBRANCH   6  11
TORSDOF 5
ENDMDL
MODEL 5
REMARK VINA RESULT:    -4.163      4.138      5.883
REMARK INTER + INTRA:          -6.491
REMARK INTER:                  -5.221
REMARK INTRA:                  -1.270
REMARK UNBOUND:                -1.232
REMARK  Name = 
REMARK  5 active torsions:
REMARK  status: ('A' for Active; 'I' for Inactive)
REMARK    1  A    between atoms: C_2  and  O_3
REMARK    2  A    between atoms: C_2  and  C_4
REMARK    3  A    between atoms: C_9  and  N_10
REMARK    4  A    between atoms: N_10  and  C_11
REMARK    5  A    between atoms: C_11  and  C_12
REMARK                            x       y       z     vdW  Elec       q    Type
REMARK                         _______ _______ _______ _____ _____    ______ ____
ROOT
ATOM      1  C   UNL     1     -27.171 -12.740  19.764  0.00  0.00    +0.080 A 
ATOM      2  C   UNL     1     -25.982 -13.415  20.104  0.00  0.00    +0.017 A 
ATOM      3  C   UNL     1     -25.947 -14.295  21.186  0.00  0.00    +0.001 A 
ATOM      4  C   UNL     1     -27.096 -14.517  21.942  0.00  0.00    +0.002 A 
ATOM      5  C   UNL     1     -28.287 -13.873  21.611  0.00  0.00    +0.024 A 
ATOM      6  C   UNL     1     -28.348 -12.987  20.518  0.00  0.00    +0.041 A 
ENDROOT
BRANCH   1   8
ATOM      7  O   UNL     1     -28.165 -11.546  17.963  0.00  0.00    -0.245 OA
ATOM      8  C   UNL     1     -27.134 -11.754  18.658  0.00  0.00    +0.339 C 
BRANCH   8   9
ATOM      9  O   UNL     1     -25.955 -11.084  18.343  0.00  0.00    -0.477 OA
ATOM     10  H   UNL     1     -25.157 -11.114  18.965  0.00  0.00    +0.295 HD
ENDBRANCH   8   9
ENDBRANCH   1   8
BRANCH   6  11
ATOM     11  N   UNL     1     -29.609 -12.409  20.127  0.00  0.00    -0.339 N 
ATOM     12  H   UNL     1     -29.672 -11.375  19.995  0.00  0.00    +0.146 HD
BRANCH  11  13
ATOM     13  C   UNL     1     -30.803 -13.197  19.819  0.00  0.00    +0.138 C 
BRANCH  13  14
ATOM     14  C   UNL     1     -31.028 -13.257  18.331  0.00  0.00    -0.012 A 
ATOM     15  C   UNL     1     -30.451 -14.273  17.555  0.00  0.00    +0.008 A 
ATOM     16  C   UNL     1     -30.679 -14.316  16.179  0.00  0.00    +0.020 A 
ATOM     17  C   UNL     1     -31.488 -13.344  15.589  0.00  0.00    +0.111 A 
ATOM     18  N   UNL     1     -32.050 -12.371  16.353  0.00  0.00    -0.263 NA
ATOM     19  C   UNL     1     -31.843 -12.307  17.696  0.00  0.00    +0.115 A 
ENDBRANCH  13  14
ENDBRANCH  11  13
ENDBRANCH   6  11
TORSDOF 5
ENDMDL
MODEL 6
REMARK VINA RESULT:    -4.153      4.368      5.717
REMARK INTER + INTRA:          -6.478
REMARK INTER:                  -5.628
REMARK INTRA:                  -0.850
REMARK UNBOUND:                -1.232
REMARK  Name = 
REMARK  5 active torsions:
REMARK  status: ('A' for Active; 'I' for Inactive)
REMARK    1  A    between atoms: C_2  and  O_3
REMARK    2  A    between atoms: C_2  and  C_4
REMARK    3  A    between atoms: C_9  and  N_10
REMARK    4  A    between atoms: N_10  and  C_11
REMARK    5  A    between atoms: C_11  and  C_12
REMARK                            x       y       z     vdW  Elec       q    Type
REMARK                         _______ _______ _______ _____ _____    ______ ____
ROOT
ATOM      1  C   UNL     1     -30.387 -11.721  17.073  0.00  0.00    +0.080 A 
ATOM      2  C   UNL     1     -30.974 -12.091  15.848  0.00  0.00    +0.017 A 
ATOM      3  C   UNL     1     -31.454 -13.386  15.650  0.00  0.00    +0.001 A 
ATOM      4  C   UNL     1     -31.359 -14.329  16.670  0.00  0.00    +0.002 A 
ATOM      5  C   UNL     1     -30.799 -13.978  17.898  0.00  0.00    +0.024 A 
ATOM      6  C   UNL     1     -30.315 -12.675  18.122  0.00  0.00    +0.041 A 
ENDROOT
BRANCH   1   8
ATOM      7  O   UNL     1     -28.970 -10.112  18.103  0.00  0.00    -0.245 OA
ATOM      8  C   UNL     1     -29.819 -10.359  17.204  0.00  0.00    +0.339 C 
BRANCH   8   9
ATOM      9  O   UNL     1     -30.246  -9.328  16.372  0.00  0.00    -0.477 OA
ATOM     10  H   UNL     1     -31.230  -9.191  16.176  0.00  0.00    +0.295 HD
ENDBRANCH   8   9
ENDBRANCH   1   8
BRANCH   6  11
ATOM     11  N   UNL     1     -29.833 -12.299  19.428  0.00  0.00    -0.339 N 
ATOM     12  H   UNL     1     -29.769 -11.285  19.671  0.00  0.00    +0.146 HD
BRANCH  11  13
ATOM     13  C   UNL     1     -29.498 -13.261  20.478  0.00  0.00    +0.138 C 
BRANCH  13  14
ATOM     14  C   UNL     1     -28.011 -13.493  20.529  0.00  0.00    -0.012 A 
ATOM     15  C   UNL     1     -27.456 -14.412  21.432  0.00  0.00    +0.008 A 
ATOM     16  C   UNL     1     -26.076 -14.619  21.458  0.00  0.00    +0.020 A 
ATOM     17  C   UNL     1     -25.261 -13.909  20.575  0.00  0.00    +0.111 A 
ATOM     18  N   UNL     1     -25.812 -13.030  19.697  0.00  0.00    -0.263 NA
ATOM     19  C   UNL     1     -27.153 -12.810  19.653  0.00  0.00    +0.115 A 
ENDBRANCH  13  14
ENDBRANCH  11  13
ENDBRANCH   6  11
TORSDOF 5
ENDMDL
MODEL 7
REMARK VINA RESULT:    -4.090      2.242      3.208
REMARK INTER + INTRA:          -6.398
REMARK INTER:                  -5.097
REMARK INTRA:                  -1.301
REMARK UNBOUND:                -1.232
REMARK  Name = 
REMARK  5 active torsions:
REMARK  status: ('A' for Active; 'I' for Inactive)
REMARK    1  A    between atoms: C_2  and  O_3
REMARK    2  A    between atoms: C_2  and  C_4
REMARK    3  A    between atoms: C_9  and  N_10
REMARK    4  A    between atoms: N_10  and  C_11
REMARK    5  A    between atoms: C_11  and  C_12
REMARK                            x       y       z     vdW  Elec       q    Type
REMARK                         _______ _______ _______ _____ _____    ______ ____
ROOT
ATOM      1  C   UNL     1     -31.206 -13.548  16.197  0.00  0.00    +0.080 A 
ATOM      2  C   UNL     1     -31.513 -13.582  14.822  0.00  0.00    +0.017 A 
ATOM      3  C   UNL     1     -30.579 -14.049  13.896  0.00  0.00    +0.001 A 
ATOM      4  C   UNL     1     -29.330 -14.490  14.325  0.00  0.00    +0.002 A 
ATOM      5  C   UNL     1     -29.014 -14.482  15.683  0.00  0.00    +0.024 A 
ATOM      6  C   UNL     1     -29.943 -14.023  16.637  0.00  0.00    +0.041 A 
ENDROOT
BRANCH   1   8
ATOM      7  O   UNL     1     -32.822 -11.916  16.817  0.00  0.00    -0.245 OA
ATOM      8  C   UNL     1     -32.200 -12.967  17.130  0.00  0.00    +0.339 C 
BRANCH   8   9
ATOM      9  O   UNL     1     -32.425 -13.544  18.376  0.00  0.00    -0.477 OA
ATOM     10  H   UNL     1     -31.812 -14.265  18.735  0.00  0.00    +0.295 HD
ENDBRANCH   8   9
ENDBRANCH   1   8
BRANCH   6  11
ATOM     11  N   UNL     1     -29.640 -14.117  18.043  0.00  0.00    -0.339 N 
ATOM     12  H   UNL     1     -30.113 -14.852  18.614  0.00  0.00    +0.146 HD
BRANCH  11  13
ATOM     13  C   UNL     1     -28.637 -13.290  18.715  0.00  0.00    +0.138 C 
BRANCH  13  14
ATOM     14  C   UNL     1     -29.231 -11.969  19.127  0.00  0.00    -0.012 A 
ATOM     15  C   UNL     1     -30.046 -11.869  20.265  0.00  0.00    +0.008 A 
ATOM     16  C   UNL     1     -30.581 -10.634  20.635  0.00  0.00    +0.020 A 
ATOM     17  C   UNL     1     -30.290  -9.505  19.868  0.00  0.00    +0.111 A 
ATOM     18  N   UNL     1     -29.490  -9.613  18.775  0.00  0.00    -0.263 NA
ATOM     19  C   UNL     1     -28.958 -10.804  18.392  0.00  0.00    +0.115 A 
ENDBRANCH  13  14
ENDBRANCH  11  13
ENDBRANCH   6  11
TORSDOF 5
ENDMDL
MODEL 8
REMARK VINA RESULT:    -4.013      2.012      4.515
REMARK INTER + INTRA:          -6.301
REMARK INTER:                  -5.226
REMARK INTRA:                  -1.076
REMARK UNBOUND:                -1.232
REMARK  Name = 
REMARK  5 active torsions:
REMARK  status: ('A' for Active; 'I' for Inactive)
REMARK    1  A    between atoms: C_2  and  O_3
REMARK    2  A    between atoms: C_2  and  C_4
REMARK    3  A    between atoms: C_9  and  N_10
REMARK    4  A    between atoms: N_10  and  C_11
REMARK    5  A    between atoms: C_11  and  C_12
REMARK                            x       y       z     vdW  Elec       q    Type
REMARK                         _______ _______ _______ _____ _____    ______ ____
ROOT
ATOM      1  C   UNL     1     -29.566 -12.928  17.188  0.00  0.00    +0.080 A 
ATOM      2  C   UNL     1     -28.435 -12.864  18.025  0.00  0.00    +0.017 A 
ATOM      3  C   UNL     1     -28.116 -11.687  18.703  0.00  0.00    +0.001 A 
ATOM      4  C   UNL     1     -28.921 -10.559  18.560  0.00  0.00    +0.002 A 
ATOM      5  C   UNL     1     -30.056 -10.608  17.751  0.00  0.00    +0.024 A 
ATOM      6  C   UNL     1     -30.401 -11.787  17.063  0.00  0.00    +0.041 A 
ENDROOT
BRANCH   1   8
ATOM      7  O   UNL     1     -30.995 -14.538  16.176  0.00  0.00    -0.245 OA
ATOM      8  C   UNL     1     -29.814 -14.175  16.427  0.00  0.00    +0.339 C 
BRANCH   8   9
ATOM      9  O   UNL     1     -28.755 -14.982  16.021  0.00  0.00    -0.477 OA
ATOM     10  H   UNL     1     -28.853 -15.989  15.981  0.00  0.00    +0.295 HD
ENDBRANCH   8   9
ENDBRANCH   1   8
BRANCH   6  11
ATOM     11  N   UNL     1     -31.631 -11.851  16.314  0.00  0.00    -0.339 N 
ATOM     12  H   UNL     1     -32.367 -12.531  16.609  0.00  0.00    +0.146 HD
BRANCH  11  13
ATOM     13  C   UNL     1     -31.952 -10.958  15.201  0.00  0.00    +0.138 C 
BRANCH  13  14
ATOM     14  C   UNL     1     -32.528 -11.736  14.048  0.00  0.00    -0.012 A 
ATOM     15  C   UNL     1     -31.731 -12.619  13.305  0.00  0.00    +0.008 A 
ATOM     16  C   UNL     1     -32.286 -13.337  12.244  0.00  0.00    +0.020 A 
ATOM     17  C   UNL     1     -33.637 -13.171  11.938  0.00  0.00    +0.111 A 
ATOM     18  N   UNL     1     -34.402 -12.320  12.672  0.00  0.00    -0.263 NA
ATOM     19  C   UNL     1     -33.885 -11.608  13.710  0.00  0.00    +0.115 A 
ENDBRANCH  13  14
ENDBRANCH  11  13
ENDBRANCH   6  11
TORSDOF 5
ENDMDL
MODEL 9
REMARK VINA RESULT:    -3.976      2.600      4.111
REMARK INTER + INTRA:          -6.254
REMARK INTER:                  -5.024
REMARK INTRA:                  -1.230
REMARK UNBOUND:                -1.232
REMARK  Name = 
REMARK  5 active torsions:
REMARK  status: ('A' for Active; 'I' for Inactive)
REMARK    1  A    between atoms: C_2  and  O_3
REMARK    2  A    between atoms: C_2  and  C_4
REMARK    3  A    between atoms: C_9  and  N_10
REMARK    4  A    between atoms: N_10  and  C_11
REMARK    5  A    between atoms: C_11  and  C_12
REMARK                            x       y       z     vdW  Elec       q    Type
REMARK                         _______ _______ _______ _____ _____    ______ ____
ROOT
ATOM      1  C   UNL     1     -32.600 -11.675  14.190  0.00  0.00    +0.080 A 
ATOM      2  C   UNL     1     -33.849 -11.403  13.597  0.00  0.00    +0.017 A 
ATOM      3  C   UNL     1     -34.278 -12.119  12.479  0.00  0.00    +0.001 A 
ATOM      4  C   UNL     1     -33.471 -13.117  11.938  0.00  0.00    +0.002 A 
ATOM      5  C   UNL     1     -32.240 -13.414  12.520  0.00  0.00    +0.024 A 
ATOM      6  C   UNL     1     -31.790 -12.710  13.654  0.00  0.00    +0.041 A 
ENDROOT
BRANCH   1   8
ATOM      7  O   UNL     1     -30.929 -10.597  15.495  0.00  0.00    -0.245 OA
ATOM      8  C   UNL     1     -32.156 -10.831  15.324  0.00  0.00    +0.339 C 
BRANCH   8   9
ATOM      9  O   UNL     1     -33.077 -10.327  16.238  0.00  0.00    -0.477 OA
ATOM     10  H   UNL     1     -32.991 -10.527  17.227  0.00  0.00    +0.295 HD
ENDBRANCH   8   9
ENDBRANCH   1   8
BRANCH   6  11
ATOM     11  N   UNL     1     -30.564 -13.098  14.304  0.00  0.00    -0.339 N 
ATOM     12  H   UNL     1     -29.728 -12.478  14.217  0.00  0.00    +0.146 HD
BRANCH  11  13
ATOM     13  C   UNL     1     -30.435 -14.279  15.158  0.00  0.00    +0.138 C 
BRANCH  13  14
ATOM     14  C   UNL     1     -30.220 -13.874  16.592  0.00  0.00    -0.012 A 
ATOM     15  C   UNL     1     -28.975 -13.399  17.029  0.00  0.00    +0.008 A 
ATOM     16  C   UNL     1     -28.798 -13.021  18.361  0.00  0.00    +0.020 A 
ATOM     17  C   UNL     1     -29.873 -13.116  19.246  0.00  0.00    +0.111 A 
ATOM     18  N   UNL     1     -31.077 -13.567  18.809  0.00  0.00    -0.263 NA
ATOM     19  C   UNL     1     -31.275 -13.942  17.517  0.00  0.00    +0.115 A 
ENDBRANCH  13  14
ENDBRANCH  11  13
ENDBRANCH   6  11
TORSDOF 5
ENDMDL
