MODEL 1
REMARK VINA RESULT:    -4.749      0.000      0.000
REMARK INTER + INTRA:          -7.823
REMARK INTER:                  -6.554
REMARK INTRA:                  -1.269
REMARK UNBOUND:                -1.269
REMARK  Name = 
REMARK  8 active torsions:
REMARK  status: ('A' for Active; 'I' for Inactive)
REMARK    1  A    between atoms: C_1  and  O_2
REMARK    2  A    between atoms: O_2  and  C_3
REMARK    3  A    between atoms: C_9  and  C_10
REMARK    4  A    between atoms: N_12  and  C_13
REMARK    5  A    between atoms: C_13  and  C_14
REMARK    6  A    between atoms: C_14  and  C_15
REMARK    7  A    between atoms: C_15  and  C_16
REMARK    8  A    between atoms: C_16  and  O_18
REMARK                            x       y       z     vdW  Elec       q    Type
REMARK                         _______ _______ _______ _____ _____    ______ ____
ROOT
ATOM      1  C   UNL     1     -28.890 -13.010  18.144  0.00  0.00    +0.248 C 
ATOM      2  O   UNL     1     -27.635 -13.124  18.162  0.00  0.00    -0.270 OA
ATOM      3  N   UNL     1     -29.609 -12.821  19.374  0.00  0.00    -0.311 N 
ATOM      4  H   UNL     1     -30.653 -12.848  19.370  0.00  0.00    +0.149 HD
ENDROOT
BRANCH   1  11
ATOM      5  C   UNL     1     -30.560 -12.143  16.461  0.00  0.00    +0.133 A 
ATOM      6  C   UNL     1     -31.230 -12.297  15.229  0.00  0.00    +0.061 A 
ATOM      7  C   UNL     1     -30.941 -13.379  14.394  0.00  0.00    +0.021 A 
ATOM      8 BR   UNL     1     -31.852 -13.569  12.726  0.00  0.00    -0.050 Br
ATOM      9  C   UNL     1     -29.978 -14.316  14.773  0.00  0.00    +0.016 A 
ATOM     10  C   UNL     1     -29.313 -14.181  15.992  0.00  0.00    +0.018 A 
ATOM     11  C   UNL     1     -29.607 -13.110  16.853  0.00  0.00    +0.078 A 
BRANCH   5  13
ATOM     12  C   UNL     1     -30.906  -9.690  16.839  0.00  0.00    +0.277 C 
ATOM     13  O   UNL     1     -30.797 -11.035  17.292  0.00  0.00    -0.494 OA
ENDBRANCH   5  13
ENDBRANCH   1  11
BRANCH   3  14
ATOM     14  C   UNL     1     -28.934 -12.614  20.654  0.00  0.00    +0.105 C 
BRANCH  14  15
ATOM     15  C   UNL     1     -28.550 -13.957  21.280  0.00  0.00    +0.030 C 
BRANCH  15  16
ATOM     16  C   UNL     1     -27.177 -13.879  21.950  0.00  0.00    +0.122 C 
BRANCH  16  17
ATOM     17  C   UNL     1     -26.091 -14.088  20.943  0.00  0.00    +0.305 C 
ATOM     18  O   UNL     1     -24.938 -13.624  21.150  0.00  0.00    -0.251 OA
BRANCH  17  19
ATOM     19  O   UNL     1     -26.344 -14.835  19.797  0.00  0.00    -0.481 OA
ATOM     20  H   UNL     1     -26.232 -15.842  19.797  0.00  0.00    +0.295 HD
ENDBRANCH  17  19
ENDBRANCH  16  17
ENDBRANCH  15  16
ENDBRANCH  14  15
ENDBRANCH   3  14
TORSDOF 7
ENDMDL
MODEL 2
REMARK VINA RESULT:    -4.064      2.180      3.340
REMARK INTER + INTRA:          -6.877
REMARK INTER:                  -5.171
REMARK INTRA:                  -1.706
REMARK UNBOUND:                -1.269
REMARK  Name = 
REMARK  8 active torsions:
REMARK  status: ('A' for Active; 'I' for Inactive)
REMARK    1  A    between atoms: C_1  and  O_2
REMARK    2  A    between atoms: O_2  and  C_3
REMARK    3  A    between atoms: C_9  and  C_10
REMARK    4  A    between atoms: N_12  and  C_13
REMARK    5  A    between atoms: C_13  and  C_14
REMARK    6  A    between atoms: C_14  and  C_15
REMARK    7  A    between atoms: C_15  and  C_16
REMARK    8  A    between atoms: C_16  and  O_18
REMARK                            x       y       z     vdW  Elec       q    Type
REMARK                         _______ _______ _______ _____ _____    ______ ____
ROOT
ATOM      1  C   UNL     1     -29.449 -13.433  16.873  0.00  0.00    +0.248 C 
ATOM      2  O   UNL     1     -28.257 -13.796  16.686  0.00  0.00    -0.270 OA
ATOM      3  N   UNL     1     -29.933 -13.225  18.211  0.00  0.00    -0.311 N 
ATOM      4  H   UNL     1     -30.949 -13.042  18.368  0.00  0.00    +0.149 HD
ENDROOT
BRANCH   1  11
ATOM      5  C   UNL     1     -31.356 -12.273  15.692  0.00  0.00    +0.133 A 
ATOM      6  C   UNL     1     -32.195 -12.164  14.564  0.00  0.00    +0.061 A 
ATOM      7  C   UNL     1     -32.014 -13.004  13.462  0.00  0.00    +0.021 A 
ATOM      8 BR   UNL     1     -33.154 -12.839  11.938  0.00  0.00    -0.050 Br
ATOM      9  C   UNL     1     -30.995 -13.957  13.469  0.00  0.00    +0.016 A 
ATOM     10  C   UNL     1     -30.163 -14.082  14.581  0.00  0.00    +0.018 A 
ATOM     11  C   UNL     1     -30.344 -13.259  15.707  0.00  0.00    +0.078 A 
BRANCH   5  13
ATOM     12  C   UNL     1     -31.128 -10.029  16.781  0.00  0.00    +0.277 C 
ATOM     13  O   UNL     1     -31.486 -11.406  16.790  0.00  0.00    -0.494 OA
ENDBRANCH   5  13
ENDBRANCH   1  11
BRANCH   3  14
ATOM     14  C   UNL     1     -29.058 -13.284  19.380  0.00  0.00    +0.105 C 
BRANCH  14  15
ATOM     15  C   UNL     1     -29.806 -12.818  20.632  0.00  0.00    +0.030 C 
BRANCH  15  16
ATOM     16  C   UNL     1     -30.700 -11.615  20.323  0.00  0.00    +0.122 C 
BRANCH  16  17
ATOM     17  C   UNL     1     -32.125 -12.045  20.177  0.00  0.00    +0.305 C 
ATOM     18  O   UNL     1     -32.986 -11.675  21.019  0.00  0.00    -0.251 OA
BRANCH  17  19
ATOM     19  O   UNL     1     -32.507 -12.818  19.086  0.00  0.00    -0.481 OA
ATOM     20  H   UNL     1     -32.573 -13.827  19.161  0.00  0.00    +0.295 HD
ENDBRANCH  17  19
ENDBRANCH  16  17
ENDBRANCH  15  16
ENDBRANCH  14  15
ENDBRANCH   3  14
TORSDOF 7
ENDMDL
MODEL 3
REMARK VINA RESULT:    -4.056      2.190      3.416
REMARK INTER + INTRA:          -6.866
REMARK INTER:                  -5.170
REMARK INTRA:                  -1.696
REMARK UNBOUND:                -1.269
REMARK  Name = 
REMARK  8 active torsions:
REMARK  status: ('A' for Active; 'I' for Inactive)
REMARK    1  A    between atoms: C_1  and  O_2
REMARK    2  A    between atoms: O_2  and  C_3
REMARK    3  A    between atoms: C_9  and  C_10
REMARK    4  A    between atoms: N_12  and  C_13
REMARK    5  A    between atoms: C_13  and  C_14
REMARK    6  A    between atoms: C_14  and  C_15
REMARK    7  A    between atoms: C_15  and  C_16
REMARK    8  A    between atoms: C_16  and  O_18
REMARK                            x       y       z     vdW  Elec       q    Type
REMARK                         _______ _______ _______ _____ _____    ______ ____
ROOT
ATOM      1  C   UNL     1     -30.328 -11.040  16.992  0.00  0.00    +0.248 C 
ATOM      2  O   UNL     1     -30.845 -10.131  17.695  0.00  0.00    -0.270 OA
ATOM      3  N   UNL     1     -29.010 -11.522  17.301  0.00  0.00    -0.311 N 
ATOM      4  H   UNL     1     -28.537 -12.186  16.647  0.00  0.00    +0.149 HD
ENDROOT
BRANCH   1  11
ATOM      5  C   UNL     1     -30.837 -12.870  15.329  0.00  0.00    +0.133 A 
ATOM      6  C   UNL     1     -31.566 -13.320  14.208  0.00  0.00    +0.061 A 
ATOM      7  C   UNL     1     -32.531 -12.503  13.614  0.00  0.00    +0.021 A 
ATOM      8 BR   UNL     1     -33.514 -13.130  12.101  0.00  0.00    -0.050 Br
ATOM      9  C   UNL     1     -32.785 -11.233  14.132  0.00  0.00    +0.016 A 
ATOM     10  C   UNL     1     -32.067 -10.771  15.235  0.00  0.00    +0.018 A 
ATOM     11  C   UNL     1     -31.077 -11.572  15.832  0.00  0.00    +0.078 A 
BRANCH   5  13
ATOM     12  C   UNL     1     -29.036 -14.612  15.310  0.00  0.00    +0.277 C 
ATOM     13  O   UNL     1     -29.899 -13.694  15.973  0.00  0.00    -0.494 OA
ENDBRANCH   5  13
ENDBRANCH   1  11
BRANCH   3  14
ATOM     14  C   UNL     1     -28.279 -11.100  18.494  0.00  0.00    +0.105 C 
BRANCH  14  15
ATOM     15  C   UNL     1     -27.654 -12.310  19.195  0.00  0.00    +0.030 C 
BRANCH  15  16
ATOM     16  C   UNL     1     -28.522 -12.776  20.365  0.00  0.00    +0.122 C 
BRANCH  16  17
ATOM     17  C   UNL     1     -29.718 -13.524  19.865  0.00  0.00    +0.305 C 
ATOM     18  O   UNL     1     -30.807 -13.467  20.495  0.00  0.00    -0.251 OA
BRANCH  17  19
ATOM     19  O   UNL     1     -29.636 -14.246  18.679  0.00  0.00    -0.481 OA
ATOM     20  H   UNL     1     -30.369 -14.185  17.983  0.00  0.00    +0.295 HD
ENDBRANCH  17  19
ENDBRANCH  16  17
ENDBRANCH  15  16
ENDBRANCH  14  15
ENDBRANCH   3  14
TORSDOF 7
ENDMDL
MODEL 4
REMARK VINA RESULT:    -4.055      2.083      3.155
REMARK INTER + INTRA:          -6.864
REMARK INTER:                  -5.047
REMARK INTRA:                  -1.817
REMARK UNBOUND:                -1.269
REMARK  Name = 
REMARK  8 active torsions:
REMARK  status: ('A' for Active; 'I' for Inactive)
REMARK    1  A    between atoms: C_1  and  O_2
REMARK    2  A    between atoms: O_2  and  C_3
REMARK    3  A    between atoms: C_9  and  C_10
REMARK    4  A    between atoms: N_12  and  C_13
REMARK    5  A    between atoms: C_13  and  C_14
REMARK    6  A    between atoms: C_14  and  C_15
REMARK    7  A    between atoms: C_15  and  C_16
REMARK    8  A    between atoms: C_16  and  O_18
REMARK                            x       y       z     vdW  Elec       q    Type
REMARK                         _______ _______ _______ _____ _____    ______ ____
ROOT
ATOM      1  C   UNL     1     -29.318 -13.420  17.288  0.00  0.00    +0.248 C 
ATOM      2  O   UNL     1     -28.063 -13.533  17.249  0.00  0.00    -0.270 OA
ATOM      3  N   UNL     1     -29.991 -13.335  18.555  0.00  0.00    -0.311 N 
ATOM      4  H   UNL     1     -31.034 -13.362  18.587  0.00  0.00    +0.149 HD
ENDROOT
BRANCH   1  11
ATOM      5  C   UNL     1     -31.233 -12.607  15.857  0.00  0.00    +0.133 A 
ATOM      6  C   UNL     1     -31.937 -12.652  14.636  0.00  0.00    +0.061 A 
ATOM      7  C   UNL     1     -31.491 -13.463  13.590  0.00  0.00    +0.021 A 
ATOM      8 BR   UNL     1     -32.452 -13.508  11.939  0.00  0.00    -0.050 Br
ATOM      9  C   UNL     1     -30.338 -14.234  13.745  0.00  0.00    +0.016 A 
ATOM     10  C   UNL     1     -29.636 -14.206  14.950  0.00  0.00    +0.018 A 
ATOM     11  C   UNL     1     -30.083 -13.411  16.021  0.00  0.00    +0.078 A 
BRANCH   5  13
ATOM     12  C   UNL     1     -32.981 -11.560  17.314  0.00  0.00    +0.277 C 
ATOM     13  O   UNL     1     -31.633 -11.760  16.904  0.00  0.00    -0.494 OA
ENDBRANCH   5  13
ENDBRANCH   1  11
BRANCH   3  14
ATOM     14  C   UNL     1     -29.269 -13.236  19.822  0.00  0.00    +0.105 C 
BRANCH  14  15
ATOM     15  C   UNL     1     -28.902 -11.778  20.116  0.00  0.00    +0.030 C 
BRANCH  15  16
ATOM     16  C   UNL     1     -30.153 -10.899  20.178  0.00  0.00    +0.122 C 
BRANCH  16  17
ATOM     17  C   UNL     1     -30.027  -9.743  19.236  0.00  0.00    +0.305 C 
ATOM     18  O   UNL     1     -30.055  -8.563  19.676  0.00  0.00    -0.251 OA
BRANCH  17  19
ATOM     19  O   UNL     1     -29.834  -9.975  17.878  0.00  0.00    -0.481 OA
ATOM     20  H   UNL     1     -29.305  -9.323  17.310  0.00  0.00    +0.295 HD
ENDBRANCH  17  19
ENDBRANCH  16  17
ENDBRANCH  15  16
ENDBRANCH  14  15
ENDBRANCH   3  14
TORSDOF 7
ENDMDL
MODEL 5
REMARK VINA RESULT:    -4.022      1.546      2.653
REMARK INTER + INTRA:          -6.819
REMARK INTER:                  -6.018
REMARK INTRA:                  -0.801
REMARK UNBOUND:                -1.269
REMARK  Name = 
REMARK  8 active torsions:
REMARK  status: ('A' for Active; 'I' for Inactive)
REMARK    1  A    between atoms: C_1  and  O_2
REMARK    2  A    between atoms: O_2  and  C_3
REMARK    3  A    between atoms: C_9  and  C_10
REMARK    4  A    between atoms: N_12  and  C_13
REMARK    5  A    between atoms: C_13  and  C_14
REMARK    6  A    between atoms: C_14  and  C_15
REMARK    7  A    between atoms: C_15  and  C_16
REMARK    8  A    between atoms: C_16  and  O_18
REMARK                            x       y       z     vdW  Elec       q    Type
REMARK                         _______ _______ _______ _____ _____    ______ ____
ROOT
ATOM      1  C   UNL     1     -29.973 -11.197  17.268  0.00  0.00    +0.248 C 
ATOM      2  O   UNL     1     -29.449 -10.051  17.305  0.00  0.00    -0.270 OA
ATOM      3  N   UNL     1     -29.653 -12.164  18.281  0.00  0.00    -0.311 N 
ATOM      4  H   UNL     1     -29.993 -13.147  18.181  0.00  0.00    +0.149 HD
ENDROOT
BRANCH   1  11
ATOM      5  C   UNL     1     -30.872 -12.815  15.551  0.00  0.00    +0.133 A 
ATOM      6  C   UNL     1     -31.750 -13.081  14.479  0.00  0.00    +0.061 A 
ATOM      7  C   UNL     1     -32.643 -12.103  14.034  0.00  0.00    +0.021 A 
ATOM      8 BR   UNL     1     -33.831 -12.480  12.587  0.00  0.00    -0.050 Br
ATOM      9  C   UNL     1     -32.674 -10.852  14.653  0.00  0.00    +0.016 A 
ATOM     10  C   UNL     1     -31.806 -10.572  15.708  0.00  0.00    +0.018 A 
ATOM     11  C   UNL     1     -30.887 -11.538  16.155  0.00  0.00    +0.078 A 
BRANCH   5  13
ATOM     12  C   UNL     1     -29.108 -14.569  15.252  0.00  0.00    +0.277 C 
ATOM     13  O   UNL     1     -30.002 -13.800  16.049  0.00  0.00    -0.494 OA
ENDBRANCH   5  13
ENDBRANCH   1  11
BRANCH   3  14
ATOM     14  C   UNL     1     -28.840 -11.836  19.451  0.00  0.00    +0.105 C 
BRANCH  14  15
ATOM     15  C   UNL     1     -27.541 -12.647  19.444  0.00  0.00    +0.030 C 
BRANCH  15  16
ATOM     16  C   UNL     1     -27.459 -13.564  20.666  0.00  0.00    +0.122 C 
BRANCH  16  17
ATOM     17  C   UNL     1     -26.101 -14.182  20.767  0.00  0.00    +0.305 C 
ATOM     18  O   UNL     1     -25.368 -13.939  21.761  0.00  0.00    -0.251 OA
BRANCH  17  19
ATOM     19  O   UNL     1     -25.666 -15.062  19.781  0.00  0.00    -0.481 OA
ATOM     20  H   UNL     1     -25.210 -14.720  18.944  0.00  0.00    +0.295 HD
ENDBRANCH  17  19
ENDBRANCH  16  17
ENDBRANCH  15  16
ENDBRANCH  14  15
ENDBRANCH   3  14
TORSDOF 7
ENDMDL
MODEL 6
REMARK VINA RESULT:    -3.812      2.006      2.446
REMARK INTER + INTRA:          -6.529
REMARK INTER:                  -5.144
REMARK INTRA:                  -1.385
REMARK UNBOUND:                -1.269
REMARK  Name = 
REMARK  8 active torsions:
REMARK  status: ('A' for Active; 'I' for Inactive)
REMARK    1  A    between atoms: C_1  and  O_2
REMARK    2  A    between atoms: O_2  and  C_3
REMARK    3  A    between atoms: C_9  and  C_10
REMARK    4  A    between atoms: N_12  and  C_13
REMARK    5  A    between atoms: C_13  and  C_14
REMARK    6  A    between atoms: C_14  and  C_15
REMARK    7  A    between atoms: C_15  and  C_16
REMARK    8  A    between atoms: C_16  and  O_18
REMARK                            x       y       z     vdW  Elec       q    Type
REMARK                         _______ _______ _______ _____ _____    ______ ____
ROOT
ATOM      1  C   UNL     1     -31.227 -13.282  17.906  0.00  0.00    +0.248 C 
ATOM      2  O   UNL     1     -30.739 -14.386  18.268  0.00  0.00    -0.270 OA
ATOM      3  N   UNL     1     -31.432 -12.238  18.872  0.00  0.00    -0.311 N 
ATOM      4  H   UNL     1     -31.946 -11.372  18.593  0.00  0.00    +0.149 HD
ENDROOT
BRANCH   1  11
ATOM      5  C   UNL     1     -32.678 -12.239  16.122  0.00  0.00    +0.133 A 
ATOM      6  C   UNL     1     -33.019 -12.111  14.759  0.00  0.00    +0.061 A 
ATOM      7  C   UNL     1     -32.299 -12.800  13.780  0.00  0.00    +0.021 A 
ATOM      8 BR   UNL     1     -32.768 -12.610  11.938  0.00  0.00    -0.050 Br
ATOM      9  C   UNL     1     -31.230 -13.619  14.146  0.00  0.00    +0.016 A 
ATOM     10  C   UNL     1     -30.887 -13.762  15.490  0.00  0.00    +0.018 A 
ATOM     11  C   UNL     1     -31.614 -13.093  16.490  0.00  0.00    +0.078 A 
BRANCH   5  13
ATOM     12  C   UNL     1     -34.628 -10.902  16.951  0.00  0.00    +0.277 C 
ATOM     13  O   UNL     1     -33.355 -11.517  17.119  0.00  0.00    -0.494 OA
ENDBRANCH   5  13
ENDBRANCH   1  11
BRANCH   3  14
ATOM     14  C   UNL     1     -30.970 -12.345  20.254  0.00  0.00    +0.105 C 
BRANCH  14  15
ATOM     15  C   UNL     1     -29.627 -11.630  20.426  0.00  0.00    +0.030 C 
BRANCH  15  16
ATOM     16  C   UNL     1     -28.475 -12.635  20.505  0.00  0.00    +0.122 C 
BRANCH  16  17
ATOM     17  C   UNL     1     -27.697 -12.642  19.228  0.00  0.00    +0.305 C 
ATOM     18  O   UNL     1     -26.809 -11.772  19.024  0.00  0.00    -0.251 OA
BRANCH  17  19
ATOM     19  O   UNL     1     -27.925 -13.638  18.284  0.00  0.00    -0.481 OA
ATOM     20  H   UNL     1     -27.471 -14.540  18.361  0.00  0.00    +0.295 HD
ENDBRANCH  17  19
ENDBRANCH  16  17
ENDBRANCH  15  16
ENDBRANCH  14  15
ENDBRANCH   3  14
TORSDOF 7
ENDMDL
MODEL 7
REMARK VINA RESULT:    -3.789      2.160      3.332
REMARK INTER + INTRA:          -6.498
REMARK INTER:                  -5.143
REMARK INTRA:                  -1.355
REMARK UNBOUND:                -1.269
REMARK  Name = 
REMARK  8 active torsions:
REMARK  status: ('A' for Active; 'I' for Inactive)
REMARK    1  A    between atoms: C_1  and  O_2
REMARK    2  A    between atoms: O_2  and  C_3
REMARK    3  A    between atoms: C_9  and  C_10
REMARK    4  A    between atoms: N_12  and  C_13
REMARK    5  A    between atoms: C_13  and  C_14
REMARK    6  A    between atoms: C_14  and  C_15
REMARK    7  A    between atoms: C_15  and  C_16
REMARK    8  A    between atoms: C_16  and  O_18
REMARK                            x       y       z     vdW  Elec       q    Type
REMARK                         _______ _______ _______ _____ _____    ______ ____
ROOT
ATOM      1  C   UNL     1     -32.035 -12.588  18.039  0.00  0.00    +0.248 C 
ATOM      2  O   UNL     1     -32.920 -12.128  18.809  0.00  0.00    -0.270 OA
ATOM      3  N   UNL     1     -30.798 -13.079  18.582  0.00  0.00    -0.311 N 
ATOM      4  H   UNL     1     -30.021 -13.346  17.936  0.00  0.00    +0.149 HD
ENDROOT
BRANCH   1  11
ATOM      5  C   UNL     1     -31.392 -13.231  15.683  0.00  0.00    +0.133 A 
ATOM      6  C   UNL     1     -31.654 -13.178  14.298  0.00  0.00    +0.061 A 
ATOM      7  C   UNL     1     -32.784 -12.513  13.816  0.00  0.00    +0.021 A 
ATOM      8 BR   UNL     1     -33.130 -12.456  11.938  0.00  0.00    -0.050 Br
ATOM      9  C   UNL     1     -33.667 -11.899  14.705  0.00  0.00    +0.016 A 
ATOM     10  C   UNL     1     -33.416 -11.937  16.077  0.00  0.00    +0.018 A 
ATOM     11  C   UNL     1     -32.272 -12.583  16.578  0.00  0.00    +0.078 A 
BRANCH   5  13
ATOM     12  C   UNL     1     -29.464 -14.811  15.433  0.00  0.00    +0.277 C 
ATOM     13  O   UNL     1     -30.290 -13.937  16.195  0.00  0.00    -0.494 OA
ENDBRANCH   5  13
ENDBRANCH   1  11
BRANCH   3  14
ATOM     14  C   UNL     1     -30.564 -13.198  20.020  0.00  0.00    +0.105 C 
BRANCH  14  15
ATOM     15  C   UNL     1     -29.131 -12.785  20.365  0.00  0.00    +0.030 C 
BRANCH  15  16
ATOM     16  C   UNL     1     -28.699 -11.563  19.552  0.00  0.00    +0.122 C 
BRANCH  16  17
ATOM     17  C   UNL     1     -27.652 -11.942  18.553  0.00  0.00    +0.305 C 
ATOM     18  O   UNL     1     -26.503 -11.428  18.616  0.00  0.00    -0.251 OA
BRANCH  17  19
ATOM     19  O   UNL     1     -27.935 -12.896  17.582  0.00  0.00    -0.481 OA
ATOM     20  H   UNL     1     -28.591 -12.698  16.835  0.00  0.00    +0.295 HD
ENDBRANCH  17  19
ENDBRANCH  16  17
ENDBRANCH  15  16
ENDBRANCH  14  15
ENDBRANCH   3  14
TORSDOF 7
ENDMDL
MODEL 8
REMARK VINA RESULT:    -3.624      3.134      3.974
REMARK INTER + INTRA:          -6.270
REMARK INTER:                  -5.258
REMARK INTRA:                  -1.012
REMARK UNBOUND:                -1.269
REMARK  Name = 
REMARK  8 active torsions:
REMARK  status: ('A' for Active; 'I' for Inactive)
REMARK    1  A    between atoms: C_1  and  O_2
REMARK    2  A    between atoms: O_2  and  C_3
REMARK    3  A    between atoms: C_9  and  C_10
REMARK    4  A    between atoms: N_12  and  C_13
REMARK    5  A    between atoms: C_13  and  C_14
REMARK    6  A    between atoms: C_14  and  C_15
REMARK    7  A    between atoms: C_15  and  C_16
REMARK    8  A    between atoms: C_16  and  O_18
REMARK                            x       y       z     vdW  Elec       q    Type
REMARK                         _______ _______ _______ _____ _____    ______ ____
ROOT
ATOM      1  C   UNL     1     -30.851 -10.191  16.986  0.00  0.00    +0.248 C 
ATOM      2  O   UNL     1     -29.647  -9.860  16.810  0.00  0.00    -0.270 OA
ATOM      3  N   UNL     1     -31.457 -10.026  18.278  0.00  0.00    -0.311 N 
ATOM      4  H   UNL     1     -32.412 -10.411  18.452  0.00  0.00    +0.149 HD
ENDROOT
BRANCH   1  11
ATOM      5  C   UNL     1     -32.833 -10.220  15.421  0.00  0.00    +0.133 A 
ATOM      6  C   UNL     1     -33.528 -10.833  14.358  0.00  0.00    +0.061 A 
ATOM      7  C   UNL     1     -33.006 -11.965  13.728  0.00  0.00    +0.021 A 
ATOM      8 BR   UNL     1     -33.956 -12.779  12.284  0.00  0.00    -0.050 Br
ATOM      9  C   UNL     1     -31.785 -12.497  14.146  0.00  0.00    +0.016 A 
ATOM     10  C   UNL     1     -31.090 -11.907  15.202  0.00  0.00    +0.018 A 
ATOM     11  C   UNL     1     -31.612 -10.779  15.860  0.00  0.00    +0.078 A 
BRANCH   5  13
ATOM     12  C   UNL     1     -34.459  -8.323  15.607  0.00  0.00    +0.277 C 
ATOM     13  O   UNL     1     -33.313  -9.051  16.035  0.00  0.00    -0.494 OA
ENDBRANCH   5  13
ENDBRANCH   1  11
BRANCH   3  14
ATOM     14  C   UNL     1     -30.777  -9.356  19.385  0.00  0.00    +0.105 C 
BRANCH  14  15
ATOM     15  C   UNL     1     -30.841 -10.214  20.651  0.00  0.00    +0.030 C 
BRANCH  15  16
ATOM     16  C   UNL     1     -30.135 -11.556  20.443  0.00  0.00    +0.122 C 
BRANCH  16  17
ATOM     17  C   UNL     1     -31.134 -12.640  20.190  0.00  0.00    +0.305 C 
ATOM     18  O   UNL     1     -32.308 -12.348  19.841  0.00  0.00    -0.251 OA
BRANCH  17  19
ATOM     19  O   UNL     1     -30.751 -13.973  20.299  0.00  0.00    -0.481 OA
ATOM     20  H   UNL     1     -31.367 -14.657  20.722  0.00  0.00    +0.295 HD
ENDBRANCH  17  19
ENDBRANCH  16  17
ENDBRANCH  15  16
ENDBRANCH  14  15
ENDBRANCH   3  14
TORSDOF 7
ENDMDL
MODEL 9
REMARK VINA RESULT:    -3.358      3.207      3.942
REMARK INTER + INTRA:          -5.902
REMARK INTER:                  -4.430
REMARK INTRA:                  -1.472
REMARK UNBOUND:                -1.269
REMARK  Name = 
REMARK  8 active torsions:
REMARK  status: ('A' for Active; 'I' for Inactive)
REMARK    1  A    between atoms: C_1  and  O_2
REMARK    2  A    between atoms: O_2  and  C_3
REMARK    3  A    between atoms: C_9  and  C_10
REMARK    4  A    between atoms: N_12  and  C_13
REMARK    5  A    between atoms: C_13  and  C_14
REMARK    6  A    between atoms: C_14  and  C_15
REMARK    7  A    between atoms: C_15  and  C_16
REMARK    8  A    between atoms: C_16  and  O_18
REMARK                            x       y       z     vdW  Elec       q    Type
REMARK                         _______ _______ _______ _____ _____    ______ ____
ROOT
ATOM      1  C   UNL     1     -31.401 -12.983  18.784  0.00  0.00    +0.248 C 
ATOM      2  O   UNL     1     -30.736 -13.570  19.680  0.00  0.00    -0.270 OA
ATOM      3  N   UNL     1     -32.480 -12.108  19.150  0.00  0.00    -0.311 N 
ATOM      4  H   UNL     1     -33.103 -11.719  18.407  0.00  0.00    +0.149 HD
ENDROOT
BRANCH   1  11
ATOM      5  C   UNL     1     -31.361 -12.281  16.359  0.00  0.00    +0.133 A 
ATOM      6  C   UNL     1     -31.051 -12.581  15.016  0.00  0.00    +0.061 A 
ATOM      7  C   UNL     1     -30.448 -13.795  14.681  0.00  0.00    +0.021 A 
ATOM      8 BR   UNL     1     -30.027 -14.183  12.858  0.00  0.00    -0.050 Br
ATOM      9  C   UNL     1     -30.142 -14.722  15.679  0.00  0.00    +0.016 A 
ATOM     10  C   UNL     1     -30.451 -14.444  17.010  0.00  0.00    +0.018 A 
ATOM     11  C   UNL     1     -31.077 -13.235  17.362  0.00  0.00    +0.078 A 
BRANCH   5  13
ATOM     12  C   UNL     1     -32.444 -10.090  15.809  0.00  0.00    +0.277 C 
ATOM     13  O   UNL     1     -31.921 -11.045  16.725  0.00  0.00    -0.494 OA
ENDBRANCH   5  13
ENDBRANCH   1  11
BRANCH   3  14
ATOM     14  C   UNL     1     -32.766 -11.751  20.538  0.00  0.00    +0.105 C 
BRANCH  14  15
ATOM     15  C   UNL     1     -31.880 -10.585  20.985  0.00  0.00    +0.030 C 
BRANCH  15  16
ATOM     16  C   UNL     1     -31.888  -9.460  19.946  0.00  0.00    +0.122 C 
BRANCH  16  17
ATOM     17  C   UNL     1     -30.490  -9.058  19.599  0.00  0.00    +0.305 C 
ATOM     18  O   UNL     1     -29.878  -9.642  18.665  0.00  0.00    -0.251 OA
BRANCH  17  19
ATOM     19  O   UNL     1     -29.882  -8.009  20.279  0.00  0.00    -0.481 OA
ATOM     20  H   UNL     1     -30.258  -7.672  21.158  0.00  0.00    +0.295 HD
ENDBRANCH  17  19
ENDBRANCH  16  17
ENDBRANCH  15  16
ENDBRANCH  14  15
ENDBRANCH   3  14
TORSDOF 7
ENDMDL
