MODEL 1
REMARK VINA RESULT:    -5.002      0.000      0.000
REMARK INTER + INTRA:          -8.385
REMARK INTER:                  -7.341
REMARK INTRA:                  -1.044
REMARK UNBOUND:                -1.044
REMARK  Name = 
REMARK  8 active torsions:
REMARK  status: ('A' for Active; 'I' for Inactive)
REMARK    1  A    between atoms: C_2  and  C_3
REMARK    2  A    between atoms: C_6  and  S_9
REMARK    3  A    between atoms: S_9  and  N_12
REMARK    4  A    between atoms: N_12  and  C_13
REMARK    5  A    between atoms: C_15  and  S_26
REMARK    6  A    between atoms: C_18  and  O_19
REMARK    7  A    between atoms: O_19  and  C_20
REMARK    8  A    between atoms: S_26  and  N_29
REMARK                            x       y       z     vdW  Elec       q    Type
REMARK                         _______ _______ _______ _____ _____    ______ ____
ROOT
ATOM      1  C   UNL     1     -32.809 -10.408  17.445  0.00  0.00    +0.092 A 
ATOM      2  C   UNL     1     -32.768  -9.193  18.156  0.00  0.00    +0.056 A 
ATOM      3  C   UNL     1     -33.851  -8.307  18.123  0.00  0.00    +0.107 A 
ATOM      4  C   UNL     1     -34.988  -8.633  17.382  0.00  0.00    +0.032 A 
ATOM      5  C   UNL     1     -35.038  -9.826  16.660  0.00  0.00    +0.050 A 
ATOM      6  C   UNL     1     -33.947 -10.713  16.671  0.00  0.00    +0.151 A 
ENDROOT
BRANCH   3   7
ATOM      7  S   UNL     1     -33.801  -6.812  19.055  0.00  0.00    +0.061 S 
ATOM      8  O   UNL     1     -34.800  -6.905  20.175  0.00  0.00    -0.153 OA
ATOM      9  O   UNL     1     -34.178  -5.652  18.174  0.00  0.00    -0.153 OA
BRANCH   7  10
ATOM     10  N   UNL     1     -32.202  -6.579  19.713  0.00  0.00    -0.172 NA
ATOM     11  C   UNL     1     -31.936  -5.145  19.898  0.00  0.00    +0.137 C 
ATOM     12  C   UNL     1     -30.542  -4.938  20.526  0.00  0.00    +0.177 C 
ATOM     13  O   UNL     1     -29.924  -6.163  20.874  0.00  0.00    -0.377 OA
ATOM     14  C   UNL     1     -30.779  -6.903  21.723  0.00  0.00    +0.177 C 
ATOM     15  C   UNL     1     -32.085  -7.289  20.999  0.00  0.00    +0.137 C 
ENDBRANCH   7  10
ENDBRANCH   3   7
BRANCH   1  16
ATOM     16  N   UNL     1     -31.704 -11.331  17.487  0.00  0.00    -0.213 N 
ATOM     17  H   UNL     1     -30.936 -11.249  16.784  0.00  0.00    +0.174 HD
BRANCH  16  18
ATOM     18  S   UNL     1     -31.646 -12.707  18.542  0.00  0.00    +0.072 S 
ATOM     19  O   UNL     1     -32.139 -13.918  17.800  0.00  0.00    -0.150 OA
ATOM     20  O   UNL     1     -32.540 -12.464  19.726  0.00  0.00    -0.150 OA
BRANCH  18  24
ATOM     21  C   UNL     1     -27.371 -13.311  20.031  0.00  0.00    +0.052 A 
ATOM     22  C   UNL     1     -28.452 -13.595  20.875  0.00  0.00    +0.021 A 
ATOM     23  C   UNL     1     -29.762 -13.417  20.422  0.00  0.00    +0.030 A 
ATOM     24  C   UNL     1     -30.000 -12.952  19.121  0.00  0.00    +0.109 A 
ATOM     25  C   UNL     1     -28.918 -12.675  18.275  0.00  0.00    +0.030 A 
ATOM     26  C   UNL     1     -27.607 -12.856  18.727  0.00  0.00    +0.021 A 
BRANCH  21  28
ATOM     27  N   UNL     1     -24.938 -13.624  20.880  0.00  0.00    -0.191 NA
ATOM     28  C   UNL     1     -26.022 -13.485  20.501  0.00  0.00    +0.099 C 
ENDBRANCH  21  28
ENDBRANCH  18  24
ENDBRANCH  16  18
ENDBRANCH   1  16
BRANCH   6  29
ATOM     29  O   UNL     1     -33.996 -11.927  15.971  0.00  0.00    -0.454 OA
BRANCH  29  30
ATOM     30  C   UNL     1     -33.606 -12.115  14.636  0.00  0.00    +0.129 A 
ATOM     31  C   UNL     1     -34.441 -11.763  13.559  0.00  0.00    +0.046 A 
ATOM     32  C   UNL     1     -34.007 -11.951  12.243  0.00  0.00    +0.004 A 
ATOM     33  C   UNL     1     -32.738 -12.479  11.992  0.00  0.00    +0.000 A 
ATOM     34  C   UNL     1     -31.897 -12.811  13.057  0.00  0.00    +0.004 A 
ATOM     35  C   UNL     1     -32.328 -12.624  14.375  0.00  0.00    +0.046 A 
ENDBRANCH  29  30
ENDBRANCH   6  29
TORSDOF 8
ENDMDL
MODEL 2
REMARK VINA RESULT:    -4.729      2.673      6.188
REMARK INTER + INTRA:          -7.986
REMARK INTER:                  -7.257
REMARK INTRA:                  -0.729
REMARK UNBOUND:                -1.044
REMARK  Name = 
REMARK  8 active torsions:
REMARK  status: ('A' for Active; 'I' for Inactive)
REMARK    1  A    between atoms: C_2  and  C_3
REMARK    2  A    between atoms: C_6  and  S_9
REMARK    3  A    between atoms: S_9  and  N_12
REMARK    4  A    between atoms: N_12  and  C_13
REMARK    5  A    between atoms: C_15  and  S_26
REMARK    6  A    between atoms: C_18  and  O_19
REMARK    7  A    between atoms: O_19  and  C_20
REMARK    8  A    between atoms: S_26  and  N_29
REMARK                            x       y       z     vdW  Elec       q    Type
REMARK                         _______ _______ _______ _____ _____    ______ ____
ROOT
ATOM      1  C   UNL     1     -31.097 -12.186  19.493  0.00  0.00    +0.092 A 
ATOM      2  C   UNL     1     -32.262 -11.510  19.901  0.00  0.00    +0.056 A 
ATOM      3  C   UNL     1     -32.185 -10.250  20.504  0.00  0.00    +0.107 A 
ATOM      4  C   UNL     1     -30.938  -9.651  20.699  0.00  0.00    +0.032 A 
ATOM      5  C   UNL     1     -29.773 -10.315  20.313  0.00  0.00    +0.050 A 
ATOM      6  C   UNL     1     -29.840 -11.591  19.724  0.00  0.00    +0.151 A 
ENDROOT
BRANCH   3   7
ATOM      7  S   UNL     1     -33.655  -9.397  20.968  0.00  0.00    +0.061 S 
ATOM      8  O   UNL     1     -33.326  -8.420  22.062  0.00  0.00    -0.153 OA
ATOM      9  O   UNL     1     -34.667 -10.379  21.493  0.00  0.00    -0.153 OA
BRANCH   7  10
ATOM     10  N   UNL     1     -34.301  -8.541  19.591  0.00  0.00    -0.172 NA
ATOM     11  C   UNL     1     -33.913  -7.124  19.651  0.00  0.00    +0.137 C 
ATOM     12  C   UNL     1     -34.441  -6.374  18.409  0.00  0.00    +0.177 C 
ATOM     13  O   UNL     1     -35.053  -7.246  17.477  0.00  0.00    -0.377 OA
ATOM     14  C   UNL     1     -34.150  -8.276  17.126  0.00  0.00    +0.177 C 
ATOM     15  C   UNL     1     -33.803  -9.153  18.346  0.00  0.00    +0.137 C 
ENDBRANCH   7  10
ENDBRANCH   3   7
BRANCH   1  16
ATOM     16  N   UNL     1     -31.170 -13.476  18.857  0.00  0.00    -0.213 N 
ATOM     17  H   UNL     1     -30.584 -14.262  19.216  0.00  0.00    +0.174 HD
BRANCH  16  18
ATOM     18  S   UNL     1     -32.059 -13.775  17.397  0.00  0.00    +0.072 S 
ATOM     19  O   UNL     1     -32.985 -12.620  17.138  0.00  0.00    -0.150 OA
ATOM     20  O   UNL     1     -32.874 -15.027  17.559  0.00  0.00    -0.150 OA
BRANCH  18  24
ATOM     21  C   UNL     1     -29.162 -14.388  13.920  0.00  0.00    +0.052 A 
ATOM     22  C   UNL     1     -30.485 -14.003  13.668  0.00  0.00    +0.021 A 
ATOM     23  C   UNL     1     -31.374 -13.809  14.729  0.00  0.00    +0.030 A 
ATOM     24  C   UNL     1     -30.945 -14.000  16.051  0.00  0.00    +0.109 A 
ATOM     25  C   UNL     1     -29.619 -14.378  16.301  0.00  0.00    +0.030 A 
ATOM     26  C   UNL     1     -28.729 -14.569  15.239  0.00  0.00    +0.021 A 
BRANCH  21  28
ATOM     27  N   UNL     1     -27.517 -14.765  11.947  0.00  0.00    -0.191 NA
ATOM     28  C   UNL     1     -28.250 -14.596  12.826  0.00  0.00    +0.099 C 
ENDBRANCH  21  28
ENDBRANCH  18  24
ENDBRANCH  16  18
ENDBRANCH   1  16
BRANCH   6  29
ATOM     29  O   UNL     1     -28.677 -12.256  19.308  0.00  0.00    -0.454 OA
BRANCH  29  30
ATOM     30  C   UNL     1     -27.842 -13.028  20.130  0.00  0.00    +0.129 A 
ATOM     31  C   UNL     1     -28.335 -13.724  21.250  0.00  0.00    +0.046 A 
ATOM     32  C   UNL     1     -27.470 -14.495  22.033  0.00  0.00    +0.004 A 
ATOM     33  C   UNL     1     -26.116 -14.587  21.700  0.00  0.00    +0.000 A 
ATOM     34  C   UNL     1     -25.626 -13.915  20.578  0.00  0.00    +0.004 A 
ATOM     35  C   UNL     1     -26.487 -13.143  19.792  0.00  0.00    +0.046 A 
ENDBRANCH  29  30
ENDBRANCH   6  29
TORSDOF 8
ENDMDL
MODEL 3
REMARK VINA RESULT:    -4.608      2.542      6.402
REMARK INTER + INTRA:          -7.808
REMARK INTER:                  -6.620
REMARK INTRA:                  -1.188
REMARK UNBOUND:                -1.044
REMARK  Name = 
REMARK  8 active torsions:
REMARK  status: ('A' for Active; 'I' for Inactive)
REMARK    1  A    between atoms: C_2  and  C_3
REMARK    2  A    between atoms: C_6  and  S_9
REMARK    3  A    between atoms: S_9  and  N_12
REMARK    4  A    between atoms: N_12  and  C_13
REMARK    5  A    between atoms: C_15  and  S_26
REMARK    6  A    between atoms: C_18  and  O_19
REMARK    7  A    between atoms: O_19  and  C_20
REMARK    8  A    between atoms: S_26  and  N_29
REMARK                            x       y       z     vdW  Elec       q    Type
REMARK                         _______ _______ _______ _____ _____    ______ ____
ROOT
ATOM      1  C   UNL     1     -31.312 -12.595  19.867  0.00  0.00    +0.092 A 
ATOM      2  C   UNL     1     -32.152 -11.469  19.776  0.00  0.00    +0.056 A 
ATOM      3  C   UNL     1     -32.014 -10.399  20.668  0.00  0.00    +0.107 A 
ATOM      4  C   UNL     1     -31.028 -10.445  21.656  0.00  0.00    +0.032 A 
ATOM      5  C   UNL     1     -30.198 -11.560  21.768  0.00  0.00    +0.050 A 
ATOM      6  C   UNL     1     -30.343 -12.649  20.889  0.00  0.00    +0.151 A 
ENDROOT
BRANCH   3   7
ATOM      7  S   UNL     1     -33.043  -8.977  20.512  0.00  0.00    +0.061 S 
ATOM      8  O   UNL     1     -34.048  -8.979  21.630  0.00  0.00    -0.153 OA
ATOM      9  O   UNL     1     -33.784  -9.027  19.204  0.00  0.00    -0.153 OA
BRANCH   7  10
ATOM     10  N   UNL     1     -32.069  -7.531  20.600  0.00  0.00    -0.172 NA
ATOM     11  C   UNL     1     -32.622  -6.495  19.716  0.00  0.00    +0.137 C 
ATOM     12  C   UNL     1     -31.792  -5.198  19.829  0.00  0.00    +0.177 C 
ATOM     13  O   UNL     1     -30.794  -5.288  20.829  0.00  0.00    -0.377 OA
ATOM     14  C   UNL     1     -31.388  -5.642  22.062  0.00  0.00    +0.177 C 
ATOM     15  C   UNL     1     -32.027  -7.044  21.991  0.00  0.00    +0.137 C 
ENDBRANCH   7  10
ENDBRANCH   3   7
BRANCH   1  16
ATOM     16  N   UNL     1     -31.439 -13.693  18.943  0.00  0.00    -0.213 N 
ATOM     17  H   UNL     1     -31.672 -14.645  19.302  0.00  0.00    +0.174 HD
BRANCH  16  18
ATOM     18  S   UNL     1     -31.053 -13.573  17.255  0.00  0.00    +0.072 S 
ATOM     19  O   UNL     1     -31.323 -14.896  16.594  0.00  0.00    -0.150 OA
ATOM     20  O   UNL     1     -29.596 -13.240  17.101  0.00  0.00    -0.150 OA
BRANCH  18  24
ATOM     21  C   UNL     1     -33.502 -10.253  15.298  0.00  0.00    +0.052 A 
ATOM     22  C   UNL     1     -34.147 -11.381  15.822  0.00  0.00    +0.021 A 
ATOM     23  C   UNL     1     -33.402 -12.397  16.427  0.00  0.00    +0.030 A 
ATOM     24  C   UNL     1     -32.006 -12.293  16.511  0.00  0.00    +0.109 A 
ATOM     25  C   UNL     1     -31.364 -11.160  15.992  0.00  0.00    +0.030 A 
ATOM     26  C   UNL     1     -32.109 -10.142  15.390  0.00  0.00    +0.021 A 
BRANCH  21  28
ATOM     27  N   UNL     1     -34.886  -8.374  14.158  0.00  0.00    -0.191 NA
ATOM     28  C   UNL     1     -34.269  -9.212  14.666  0.00  0.00    +0.099 C 
ENDBRANCH  21  28
ENDBRANCH  18  24
ENDBRANCH  16  18
ENDBRANCH   1  16
BRANCH   6  29
ATOM     29  O   UNL     1     -29.497 -13.765  20.975  0.00  0.00    -0.454 OA
BRANCH  29  30
ATOM     30  C   UNL     1     -28.106 -13.749  20.793  0.00  0.00    +0.129 A 
ATOM     31  C   UNL     1     -27.491 -12.934  19.824  0.00  0.00    +0.046 A 
ATOM     32  C   UNL     1     -26.099 -12.936  19.685  0.00  0.00    +0.004 A 
ATOM     33  C   UNL     1     -25.313 -13.739  20.517  0.00  0.00    +0.000 A 
ATOM     34  C   UNL     1     -25.917 -14.534  21.494  0.00  0.00    +0.004 A 
ATOM     35  C   UNL     1     -27.308 -14.534  21.635  0.00  0.00    +0.046 A 
ENDBRANCH  29  30
ENDBRANCH   6  29
TORSDOF 8
ENDMDL
MODEL 4
REMARK VINA RESULT:    -4.569      2.398      6.894
REMARK INTER + INTRA:          -7.750
REMARK INTER:                  -6.864
REMARK INTRA:                  -0.886
REMARK UNBOUND:                -1.044
REMARK  Name = 
REMARK  8 active torsions:
REMARK  status: ('A' for Active; 'I' for Inactive)
REMARK    1  A    between atoms: C_2  and  C_3
REMARK    2  A    between atoms: C_6  and  S_9
REMARK    3  A    between atoms: S_9  and  N_12
REMARK    4  A    between atoms: N_12  and  C_13
REMARK    5  A    between atoms: C_15  and  S_26
REMARK    6  A    between atoms: C_18  and  O_19
REMARK    7  A    between atoms: O_19  and  C_20
REMARK    8  A    between atoms: S_26  and  N_29
REMARK                            x       y       z     vdW  Elec       q    Type
REMARK                         _______ _______ _______ _____ _____    ______ ____
ROOT
ATOM      1  C   UNL     1     -31.267 -12.304  19.884  0.00  0.00    +0.092 A 
ATOM      2  C   UNL     1     -32.000 -11.103  19.869  0.00  0.00    +0.056 A 
ATOM      3  C   UNL     1     -31.737 -10.092  20.801  0.00  0.00    +0.107 A 
ATOM      4  C   UNL     1     -30.732 -10.274  21.753  0.00  0.00    +0.032 A 
ATOM      5  C   UNL     1     -30.007 -11.466  21.790  0.00  0.00    +0.050 A 
ATOM      6  C   UNL     1     -30.278 -12.494  20.870  0.00  0.00    +0.151 A 
ENDROOT
BRANCH   3   7
ATOM      7  S   UNL     1     -32.633  -8.576  20.741  0.00  0.00    +0.061 S 
ATOM      8  O   UNL     1     -31.701  -7.448  21.088  0.00  0.00    -0.153 OA
ATOM      9  O   UNL     1     -33.747  -8.604  21.751  0.00  0.00    -0.153 OA
BRANCH   7  10
ATOM     10  N   UNL     1     -33.276  -8.333  19.136  0.00  0.00    -0.172 NA
ATOM     11  C   UNL     1     -34.294  -9.352  18.841  0.00  0.00    +0.137 C 
ATOM     12  C   UNL     1     -34.900  -9.110  17.442  0.00  0.00    +0.177 C 
ATOM     13  O   UNL     1     -34.420  -7.917  16.850  0.00  0.00    -0.377 OA
ATOM     14  C   UNL     1     -34.652  -6.828  17.720  0.00  0.00    +0.177 C 
ATOM     15  C   UNL     1     -33.860  -6.984  19.034  0.00  0.00    +0.137 C 
ENDBRANCH   7  10
ENDBRANCH   3   7
BRANCH   1  16
ATOM     16  N   UNL     1     -31.522 -13.342  18.917  0.00  0.00    -0.213 N 
ATOM     17  H   UNL     1     -32.197 -14.105  19.146  0.00  0.00    +0.174 HD
BRANCH  16  18
ATOM     18  S   UNL     1     -30.637 -13.508  17.434  0.00  0.00    +0.072 S 
ATOM     19  O   UNL     1     -30.203 -14.939  17.277  0.00  0.00    -0.150 OA
ATOM     20  O   UNL     1     -29.416 -12.632  17.483  0.00  0.00    -0.150 OA
BRANCH  18  24
ATOM     21  C   UNL     1     -33.235 -12.167  13.927  0.00  0.00    +0.052 A 
ATOM     22  C   UNL     1     -32.037 -12.851  13.687  0.00  0.00    +0.021 A 
ATOM     23  C   UNL     1     -31.241 -13.268  14.758  0.00  0.00    +0.030 A 
ATOM     24  C   UNL     1     -31.638 -13.003  16.076  0.00  0.00    +0.109 A 
ATOM     25  C   UNL     1     -32.841 -12.325  16.314  0.00  0.00    +0.030 A 
ATOM     26  C   UNL     1     -33.639 -11.910  15.243  0.00  0.00    +0.021 A 
BRANCH  21  28
ATOM     27  N   UNL     1     -34.705 -11.377  11.938  0.00  0.00    -0.191 NA
ATOM     28  C   UNL     1     -34.050 -11.729  12.824  0.00  0.00    +0.099 C 
ENDBRANCH  21  28
ENDBRANCH  18  24
ENDBRANCH  16  18
ENDBRANCH   1  16
BRANCH   6  29
ATOM     29  O   UNL     1     -29.538 -13.686  20.880  0.00  0.00    -0.454 OA
BRANCH  29  30
ATOM     30  C   UNL     1     -28.138 -13.776  20.874  0.00  0.00    +0.129 A 
ATOM     31  C   UNL     1     -27.354 -13.130  19.900  0.00  0.00    +0.046 A 
ATOM     32  C   UNL     1     -25.960 -13.231  19.940  0.00  0.00    +0.004 A 
ATOM     33  C   UNL     1     -25.339 -13.966  20.954  0.00  0.00    +0.000 A 
ATOM     34  C   UNL     1     -26.111 -14.593  21.934  0.00  0.00    +0.004 A 
ATOM     35  C   UNL     1     -27.506 -14.493  21.898  0.00  0.00    +0.046 A 
ENDBRANCH  29  30
ENDBRANCH   6  29
TORSDOF 8
ENDMDL
MODEL 5
REMARK VINA RESULT:    -3.920      2.410      6.449
REMARK INTER + INTRA:          -6.798
REMARK INTER:                  -5.810
REMARK INTRA:                  -0.988
REMARK UNBOUND:                -1.044
REMARK  Name = 
REMARK  8 active torsions:
REMARK  status: ('A' for Active; 'I' for Inactive)
REMARK    1  A    between atoms: C_2  and  C_3
REMARK    2  A    between atoms: C_6  and  S_9
REMARK    3  A    between atoms: S_9  and  N_12
REMARK    4  A    between atoms: N_12  and  C_13
REMARK    5  A    between atoms: C_15  and  S_26
REMARK    6  A    between atoms: C_18  and  O_19
REMARK    7  A    between atoms: O_19  and  C_20
REMARK    8  A    between atoms: S_26  and  N_29
REMARK                            x       y       z     vdW  Elec       q    Type
REMARK                         _______ _______ _______ _____ _____    ______ ____
ROOT
ATOM      1  C   UNL     1     -32.528 -10.882  16.966  0.00  0.00    +0.092 A 
ATOM      2  C   UNL     1     -31.939 -11.570  15.888  0.00  0.00    +0.056 A 
ATOM      3  C   UNL     1     -32.705 -11.959  14.784  0.00  0.00    +0.107 A 
ATOM      4  C   UNL     1     -34.068 -11.657  14.747  0.00  0.00    +0.032 A 
ATOM      5  C   UNL     1     -34.668 -10.989  15.814  0.00  0.00    +0.050 A 
ATOM      6  C   UNL     1     -33.910 -10.612  16.937  0.00  0.00    +0.151 A 
ENDROOT
BRANCH   3   7
ATOM      7  S   UNL     1     -31.945 -12.779  13.422  0.00  0.00    +0.061 S 
ATOM      8  O   UNL     1     -31.737 -11.786  12.312  0.00  0.00    -0.153 OA
ATOM      9  O   UNL     1     -32.846 -13.874  12.921  0.00  0.00    -0.153 OA
BRANCH   7  10
ATOM     10  N   UNL     1     -30.406 -13.438  13.914  0.00  0.00    -0.172 NA
ATOM     11  C   UNL     1     -30.601 -14.441  14.972  0.00  0.00    +0.137 C 
ATOM     12  C   UNL     1     -29.247 -15.062  15.375  0.00  0.00    +0.177 C 
ATOM     13  O   UNL     1     -28.185 -14.607  14.556  0.00  0.00    -0.377 OA
ATOM     14  C   UNL     1     -28.493 -14.852  13.198  0.00  0.00    +0.177 C 
ATOM     15  C   UNL     1     -29.731 -14.047  12.754  0.00  0.00    +0.137 C 
ENDBRANCH   7  10
ENDBRANCH   3   7
BRANCH   1  16
ATOM     16  N   UNL     1     -31.741 -10.465  18.100  0.00  0.00    -0.213 N 
ATOM     17  H   UNL     1     -31.125  -9.626  18.019  0.00  0.00    +0.174 HD
BRANCH  16  18
ATOM     18  S   UNL     1     -31.616 -11.381  19.568  0.00  0.00    +0.072 S 
ATOM     19  O   UNL     1     -32.637 -12.485  19.548  0.00  0.00    -0.150 OA
ATOM     20  O   UNL     1     -31.894 -10.482  20.739  0.00  0.00    -0.150 OA
BRANCH  18  24
ATOM     21  C   UNL     1     -27.409 -13.105  19.993  0.00  0.00    +0.052 A 
ATOM     22  C   UNL     1     -27.662 -12.107  19.043  0.00  0.00    +0.021 A 
ATOM     23  C   UNL     1     -28.948 -11.573  18.913  0.00  0.00    +0.030 A 
ATOM     24  C   UNL     1     -29.989 -12.034  19.732  0.00  0.00    +0.109 A 
ATOM     25  C   UNL     1     -29.731 -13.027  20.687  0.00  0.00    +0.030 A 
ATOM     26  C   UNL     1     -28.444 -13.559  20.819  0.00  0.00    +0.021 A 
BRANCH  21  28
ATOM     27  N   UNL     1     -25.026 -14.109  20.222  0.00  0.00    -0.191 NA
ATOM     28  C   UNL     1     -26.088 -13.661  20.120  0.00  0.00    +0.099 C 
ENDBRANCH  21  28
ENDBRANCH  18  24
ENDBRANCH  16  18
ENDBRANCH   1  16
BRANCH   6  29
ATOM     29  O   UNL     1     -34.498  -9.916  18.005  0.00  0.00    -0.454 OA
BRANCH  29  30
ATOM     30  C   UNL     1     -34.494  -8.523  18.170  0.00  0.00    +0.129 A 
ATOM     31  C   UNL     1     -35.059  -7.658  17.215  0.00  0.00    +0.046 A 
ATOM     32  C   UNL     1     -35.049  -6.276  17.427  0.00  0.00    +0.004 A 
ATOM     33  C   UNL     1     -34.487  -5.749  18.594  0.00  0.00    +0.000 A 
ATOM     34  C   UNL     1     -33.944  -6.605  19.554  0.00  0.00    +0.004 A 
ATOM     35  C   UNL     1     -33.952  -7.988  19.346  0.00  0.00    +0.046 A 
ENDBRANCH  29  30
ENDBRANCH   6  29
TORSDOF 8
ENDMDL
MODEL 6
REMARK VINA RESULT:    -3.702      2.294      2.878
REMARK INTER + INTRA:          -6.478
REMARK INTER:                  -4.290
REMARK INTRA:                  -2.188
REMARK UNBOUND:                -1.044
REMARK  Name = 
REMARK  8 active torsions:
REMARK  status: ('A' for Active; 'I' for Inactive)
REMARK    1  A    between atoms: C_2  and  C_3
REMARK    2  A    between atoms: C_6  and  S_9
REMARK    3  A    between atoms: S_9  and  N_12
REMARK    4  A    between atoms: N_12  and  C_13
REMARK    5  A    between atoms: C_15  and  S_26
REMARK    6  A    between atoms: C_18  and  O_19
REMARK    7  A    between atoms: O_19  and  C_20
REMARK    8  A    between atoms: S_26  and  N_29
REMARK                            x       y       z     vdW  Elec       q    Type
REMARK                         _______ _______ _______ _____ _____    ______ ____
ROOT
ATOM      1  C   UNL     1     -34.117  -9.839  18.783  0.00  0.00    +0.092 A 
ATOM      2  C   UNL     1     -34.010  -8.852  19.782  0.00  0.00    +0.056 A 
ATOM      3  C   UNL     1     -34.429  -7.539  19.537  0.00  0.00    +0.107 A 
ATOM      4  C   UNL     1     -34.965  -7.204  18.292  0.00  0.00    +0.032 A 
ATOM      5  C   UNL     1     -35.062  -8.168  17.288  0.00  0.00    +0.050 A 
ATOM      6  C   UNL     1     -34.626  -9.485  17.518  0.00  0.00    +0.151 A 
ENDROOT
BRANCH   3   7
ATOM      7  S   UNL     1     -34.332  -6.326  20.812  0.00  0.00    +0.061 S 
ATOM      8  O   UNL     1     -35.062  -6.835  22.024  0.00  0.00    -0.153 OA
ATOM      9  O   UNL     1     -34.994  -5.055  20.355  0.00  0.00    -0.153 OA
BRANCH   7  10
ATOM     10  N   UNL     1     -32.661  -6.027  21.216  0.00  0.00    -0.172 NA
ATOM     11  C   UNL     1     -32.021  -7.270  21.673  0.00  0.00    +0.137 C 
ATOM     12  C   UNL     1     -30.531  -7.020  21.984  0.00  0.00    +0.177 C 
ATOM     13  O   UNL     1     -30.126  -5.706  21.644  0.00  0.00    -0.377 OA
ATOM     14  C   UNL     1     -30.431  -5.452  20.287  0.00  0.00    +0.177 C 
ATOM     15  C   UNL     1     -31.952  -5.493  20.040  0.00  0.00    +0.137 C 
ENDBRANCH   7  10
ENDBRANCH   3   7
BRANCH   1  16
ATOM     16  N   UNL     1     -33.701 -11.196  19.033  0.00  0.00    -0.213 N 
ATOM     17  H   UNL     1     -34.397 -11.971  18.956  0.00  0.00    +0.174 HD
BRANCH  16  18
ATOM     18  S   UNL     1     -32.130 -11.621  19.632  0.00  0.00    +0.072 S 
ATOM     19  O   UNL     1     -32.285 -12.474  20.860  0.00  0.00    -0.150 OA
ATOM     20  O   UNL     1     -31.383 -10.370  20.000  0.00  0.00    -0.150 OA
BRANCH  18  24
ATOM     21  C   UNL     1     -29.800 -13.825  16.381  0.00  0.00    +0.052 A 
ATOM     22  C   UNL     1     -29.176 -12.816  17.126  0.00  0.00    +0.021 A 
ATOM     23  C   UNL     1     -29.883 -12.143  18.126  0.00  0.00    +0.030 A 
ATOM     24  C   UNL     1     -31.221 -12.473  18.387  0.00  0.00    +0.109 A 
ATOM     25  C   UNL     1     -31.841 -13.488  17.645  0.00  0.00    +0.030 A 
ATOM     26  C   UNL     1     -31.133 -14.164  16.647  0.00  0.00    +0.021 A 
BRANCH  21  28
ATOM     27  N   UNL     1     -28.489 -15.062  14.512  0.00  0.00    -0.191 NA
ATOM     28  C   UNL     1     -29.074 -14.511  15.345  0.00  0.00    +0.099 C 
ENDBRANCH  21  28
ENDBRANCH  18  24
ENDBRANCH  16  18
ENDBRANCH   1  16
BRANCH   6  29
ATOM     29  O   UNL     1     -34.743 -10.469  16.524  0.00  0.00    -0.454 OA
BRANCH  29  30
ATOM     30  C   UNL     1     -33.723 -10.867  15.647  0.00  0.00    +0.129 A 
ATOM     31  C   UNL     1     -33.934 -11.840  14.652  0.00  0.00    +0.046 A 
ATOM     32  C   UNL     1     -32.894 -12.196  13.787  0.00  0.00    +0.004 A 
ATOM     33  C   UNL     1     -31.645 -11.579  13.901  0.00  0.00    +0.000 A 
ATOM     34  C   UNL     1     -31.437 -10.599  14.873  0.00  0.00    +0.004 A 
ATOM     35  C   UNL     1     -32.474 -10.240  15.740  0.00  0.00    +0.046 A 
ENDBRANCH  29  30
ENDBRANCH   6  29
TORSDOF 8
ENDMDL
MODEL 7
REMARK VINA RESULT:    -3.508      2.475      6.466
REMARK INTER + INTRA:          -6.193
REMARK INTER:                  -5.193
REMARK INTRA:                  -1.000
REMARK UNBOUND:                -1.044
REMARK  Name = 
REMARK  8 active torsions:
REMARK  status: ('A' for Active; 'I' for Inactive)
REMARK    1  A    between atoms: C_2  and  C_3
REMARK    2  A    between atoms: C_6  and  S_9
REMARK    3  A    between atoms: S_9  and  N_12
REMARK    4  A    between atoms: N_12  and  C_13
REMARK    5  A    between atoms: C_15  and  S_26
REMARK    6  A    between atoms: C_18  and  O_19
REMARK    7  A    between atoms: O_19  and  C_20
REMARK    8  A    between atoms: S_26  and  N_29
REMARK                            x       y       z     vdW  Elec       q    Type
REMARK                         _______ _______ _______ _____ _____    ______ ____
ROOT
ATOM      1  C   UNL     1     -32.802 -10.243  18.946  0.00  0.00    +0.092 A 
ATOM      2  C   UNL     1     -32.337 -10.951  17.822  0.00  0.00    +0.056 A 
ATOM      3  C   UNL     1     -32.987 -10.841  16.588  0.00  0.00    +0.107 A 
ATOM      4  C   UNL     1     -34.107 -10.015  16.467  0.00  0.00    +0.032 A 
ATOM      5  C   UNL     1     -34.588  -9.320  17.576  0.00  0.00    +0.050 A 
ATOM      6  C   UNL     1     -33.953  -9.439  18.825  0.00  0.00    +0.151 A 
ENDROOT
BRANCH   3   7
ATOM      7  S   UNL     1     -32.366 -11.698  15.179  0.00  0.00    +0.061 S 
ATOM      8  O   UNL     1     -31.872 -10.691  14.177  0.00  0.00    -0.153 OA
ATOM      9  O   UNL     1     -33.469 -12.501  14.545  0.00  0.00    -0.153 OA
BRANCH   7  10
ATOM     10  N   UNL     1     -31.052 -12.744  15.656  0.00  0.00    -0.172 NA
ATOM     11  C   UNL     1     -31.529 -13.745  16.621  0.00  0.00    +0.137 C 
ATOM     12  C   UNL     1     -30.382 -14.703  17.006  0.00  0.00    +0.177 C 
ATOM     13  O   UNL     1     -29.206 -14.458  16.257  0.00  0.00    -0.377 OA
ATOM     14  C   UNL     1     -29.501 -14.520  14.876  0.00  0.00    +0.177 C 
ATOM     15  C   UNL     1     -30.490 -13.409  14.467  0.00  0.00    +0.137 C 
ENDBRANCH   7  10
ENDBRANCH   3   7
BRANCH   1  16
ATOM     16  N   UNL     1     -32.128 -10.340  20.216  0.00  0.00    -0.213 N 
ATOM     17  H   UNL     1     -32.645 -10.698  21.049  0.00  0.00    +0.174 HD
BRANCH  16  18
ATOM     18  S   UNL     1     -30.530  -9.727  20.501  0.00  0.00    +0.072 S 
ATOM     19  O   UNL     1     -30.494  -9.048  21.842  0.00  0.00    -0.150 OA
ATOM     20  O   UNL     1     -30.186  -8.723  19.437  0.00  0.00    -0.150 OA
BRANCH  18  24
ATOM     21  C   UNL     1     -27.475 -13.116  20.312  0.00  0.00    +0.052 A 
ATOM     22  C   UNL     1     -28.228 -12.919  21.476  0.00  0.00    +0.021 A 
ATOM     23  C   UNL     1     -29.169 -11.886  21.537  0.00  0.00    +0.030 A 
ATOM     24  C   UNL     1     -29.361 -11.043  20.432  0.00  0.00    +0.109 A 
ATOM     25  C   UNL     1     -28.611 -11.247  19.266  0.00  0.00    +0.030 A 
ATOM     26  C   UNL     1     -27.673 -12.282  19.204  0.00  0.00    +0.021 A 
BRANCH  21  28
ATOM     27  N   UNL     1     -25.717 -15.024  20.206  0.00  0.00    -0.191 NA
ATOM     28  C   UNL     1     -26.501 -14.174  20.253  0.00  0.00    +0.099 C 
ENDBRANCH  21  28
ENDBRANCH  18  24
ENDBRANCH  16  18
ENDBRANCH   1  16
BRANCH   6  29
ATOM     29  O   UNL     1     -34.413  -8.724  19.941  0.00  0.00    -0.454 OA
BRANCH  29  30
ATOM     30  C   UNL     1     -33.959  -7.457  20.340  0.00  0.00    +0.129 A 
ATOM     31  C   UNL     1     -34.335  -6.885  21.569  0.00  0.00    +0.046 A 
ATOM     32  C   UNL     1     -33.847  -5.627  21.936  0.00  0.00    +0.004 A 
ATOM     33  C   UNL     1     -32.975  -4.938  21.088  0.00  0.00    +0.000 A 
ATOM     34  C   UNL     1     -32.583  -5.511  19.876  0.00  0.00    +0.004 A 
ATOM     35  C   UNL     1     -33.069  -6.769  19.505  0.00  0.00    +0.046 A 
ENDBRANCH  29  30
ENDBRANCH   6  29
TORSDOF 8
ENDMDL
MODEL 8
REMARK VINA RESULT:    -3.331      2.899      6.812
REMARK INTER + INTRA:          -5.934
REMARK INTER:                  -6.073
REMARK INTRA:                   0.139
REMARK UNBOUND:                -1.044
REMARK  Name = 
REMARK  8 active torsions:
REMARK  status: ('A' for Active; 'I' for Inactive)
REMARK    1  A    between atoms: C_2  and  C_3
REMARK    2  A    between atoms: C_6  and  S_9
REMARK    3  A    between atoms: S_9  and  N_12
REMARK    4  A    between atoms: N_12  and  C_13
REMARK    5  A    between atoms: C_15  and  S_26
REMARK    6  A    between atoms: C_18  and  O_19
REMARK    7  A    between atoms: O_19  and  C_20
REMARK    8  A    between atoms: S_26  and  N_29
REMARK                            x       y       z     vdW  Elec       q    Type
REMARK                         _______ _______ _______ _____ _____    ______ ____
ROOT
ATOM      1  C   UNL     1     -31.322 -11.739  16.933  0.00  0.00    +0.092 A 
ATOM      2  C   UNL     1     -30.900 -11.290  18.199  0.00  0.00    +0.056 A 
ATOM      3  C   UNL     1     -30.365 -12.184  19.134  0.00  0.00    +0.107 A 
ATOM      4  C   UNL     1     -30.243 -13.536  18.806  0.00  0.00    +0.032 A 
ATOM      5  C   UNL     1     -30.670 -13.998  17.562  0.00  0.00    +0.050 A 
ATOM      6  C   UNL     1     -31.227 -13.110  16.624  0.00  0.00    +0.151 A 
ENDROOT
BRANCH   3   7
ATOM      7  S   UNL     1     -29.799 -11.599  20.697  0.00  0.00    +0.061 S 
ATOM      8  O   UNL     1     -30.804 -11.975  21.749  0.00  0.00    -0.153 OA
ATOM      9  O   UNL     1     -29.680 -10.099  20.665  0.00  0.00    -0.153 OA
BRANCH   7  10
ATOM     10  N   UNL     1     -28.255 -12.321  21.074  0.00  0.00    -0.172 NA
ATOM     11  C   UNL     1     -28.453 -13.617  21.739  0.00  0.00    +0.137 C 
ATOM     12  C   UNL     1     -27.090 -14.281  22.029  0.00  0.00    +0.177 C 
ATOM     13  O   UNL     1     -26.010 -13.546  21.484  0.00  0.00    -0.377 OA
ATOM     14  C   UNL     1     -26.217 -13.353  20.099  0.00  0.00    +0.177 C 
ATOM     15  C   UNL     1     -27.473 -12.497  19.837  0.00  0.00    +0.137 C 
ENDBRANCH   7  10
ENDBRANCH   3   7
BRANCH   1  16
ATOM     16  N   UNL     1     -31.859 -10.821  15.961  0.00  0.00    -0.213 N 
ATOM     17  H   UNL     1     -31.209 -10.267  15.360  0.00  0.00    +0.174 HD
BRANCH  16  18
ATOM     18  S   UNL     1     -33.547 -10.439  15.835  0.00  0.00    +0.072 S 
ATOM     19  O   UNL     1     -34.355 -11.655  16.195  0.00  0.00    -0.150 OA
ATOM     20  O   UNL     1     -33.863 -10.046  14.420  0.00  0.00    -0.150 OA
BRANCH  18  24
ATOM     21  C   UNL     1     -34.530  -6.937  18.595  0.00  0.00    +0.052 A 
ATOM     22  C   UNL     1     -34.920  -6.897  17.250  0.00  0.00    +0.021 A 
ATOM     23  C   UNL     1     -34.626  -7.970  16.403  0.00  0.00    +0.030 A 
ATOM     24  C   UNL     1     -33.939  -9.089  16.896  0.00  0.00    +0.109 A 
ATOM     25  C   UNL     1     -33.557  -9.129  18.243  0.00  0.00    +0.030 A 
ATOM     26  C   UNL     1     -33.853  -8.058  19.092  0.00  0.00    +0.021 A 
BRANCH  21  28
ATOM     27  N   UNL     1     -35.062  -4.938  20.165  0.00  0.00    -0.191 NA
ATOM     28  C   UNL     1     -34.825  -5.828  19.465  0.00  0.00    +0.099 C 
ENDBRANCH  21  28
ENDBRANCH  18  24
ENDBRANCH  16  18
ENDBRANCH   1  16
BRANCH   6  29
ATOM     29  O   UNL     1     -31.637 -13.559  15.359  0.00  0.00    -0.454 OA
BRANCH  29  30
ATOM     30  C   UNL     1     -30.788 -14.043  14.352  0.00  0.00    +0.129 A 
ATOM     31  C   UNL     1     -31.196 -14.121  13.007  0.00  0.00    +0.046 A 
ATOM     32  C   UNL     1     -30.313 -14.595  12.032  0.00  0.00    +0.004 A 
ATOM     33  C   UNL     1     -29.018 -14.983  12.388  0.00  0.00    +0.000 A 
ATOM     34  C   UNL     1     -28.602 -14.889  13.718  0.00  0.00    +0.004 A 
ATOM     35  C   UNL     1     -29.482 -14.415  14.696  0.00  0.00    +0.046 A 
ENDBRANCH  29  30
ENDBRANCH   6  29
TORSDOF 8
ENDMDL
