MODEL 1
REMARK VINA RESULT:    -3.712      0.000      0.000
REMARK INTER + INTRA:          -5.198
REMARK INTER:                  -4.580
REMARK INTRA:                  -0.618
REMARK UNBOUND:                -0.618
REMARK  Name = 
REMARK  6 active torsions:
REMARK  status: ('A' for Active; 'I' for Inactive)
REMARK    1  A    between atoms: C_1  and  C_2
REMARK    2  A    between atoms: C_2  and  C_3
REMARK    3  A    between atoms: C_3  and  C_4
REMARK    4  A    between atoms: C_3  and  N_6
REMARK    5  A    between atoms: C_4  and  C_5
REMARK    6  A    between atoms: C_10  and  N_14
REMARK                            x       y       z     vdW  Elec       q    Type
REMARK                         _______ _______ _______ _____ _____    ______ ____
ROOT
ATOM      1  N   UNL     1     -31.292 -12.932  20.101  0.00  0.00    -0.311 N 
ATOM      2  C   UNL     1     -29.861 -13.011  20.136  0.00  0.00    +0.217 A 
ATOM      3  N   UNL     1     -29.105 -12.269  19.285  0.00  0.00    -0.221 NA
ATOM      4  C   UNL     1     -27.750 -12.337  19.310  0.00  0.00    +0.150 A 
ATOM      5  C   UNL     1     -27.100 -13.171  20.229  0.00  0.00    +0.184 A 
ATOM      6  C   UNL     1     -27.901 -13.956  21.086  0.00  0.00    +0.152 A 
ATOM      7  N   UNL     1     -27.335 -14.910  21.989  0.00  0.00    -0.341 N 
ATOM      8  N   UNL     1     -29.256 -13.846  21.019  0.00  0.00    -0.198 NA
ATOM      9  H   UNL     1     -31.830 -13.506  20.789  0.00  0.00    +0.149 HD
ATOM     10  H   UNL     1     -27.953 -15.416  22.661  0.00  0.00    +0.144 HD
ATOM     11  H   UNL     1     -26.340 -15.215  21.923  0.00  0.00    +0.144 HD
ENDROOT
BRANCH   5  12
ATOM     12  N   UNL     1     -25.664 -13.182  20.289  0.00  0.00    +0.061 N 
ATOM     13  O   UNL     1     -24.938 -12.338  19.480  0.00  0.00    -0.126 OA
ATOM     14  O   UNL     1     -25.076 -13.787  21.209  0.00  0.00    -0.126 OA
ENDBRANCH   5  12
BRANCH   1  15
ATOM     15  C   UNL     1     -32.010 -12.054  19.168  0.00  0.00    +0.073 C 
BRANCH  15  17
ATOM     16  C   UNL     1     -31.658 -12.558  16.682  0.00  0.00    +0.006 C 
ATOM     17  C   UNL     1     -32.477 -12.874  17.934  0.00  0.00    +0.019 C 
ENDBRANCH  15  17
BRANCH  15  18
ATOM     18  C   UNL     1     -33.191 -11.379  19.903  0.00  0.00    +0.019 C 
ATOM     19  C   UNL     1     -32.798 -10.791  21.257  0.00  0.00    +0.006 C 
ENDBRANCH  15  18
ENDBRANCH   1  15
TORSDOF 4
ENDMDL
MODEL 2
REMARK VINA RESULT:    -3.599      2.063      2.421
REMARK INTER + INTRA:          -5.058
REMARK INTER:                  -4.399
REMARK INTRA:                  -0.660
REMARK UNBOUND:                -0.618
REMARK  Name = 
REMARK  6 active torsions:
REMARK  status: ('A' for Active; 'I' for Inactive)
REMARK    1  A    between atoms: C_1  and  C_2
REMARK    2  A    between atoms: C_2  and  C_3
REMARK    3  A    between atoms: C_3  and  C_4
REMARK    4  A    between atoms: C_3  and  N_6
REMARK    5  A    between atoms: C_4  and  C_5
REMARK    6  A    between atoms: C_10  and  N_14
REMARK                            x       y       z     vdW  Elec       q    Type
REMARK                         _______ _______ _______ _____ _____    ______ ____
ROOT
ATOM      1  N   UNL     1     -30.694 -11.910  17.664  0.00  0.00    -0.311 N 
ATOM      2  C   UNL     1     -29.509 -12.249  18.394  0.00  0.00    +0.217 A 
ATOM      3  N   UNL     1     -28.295 -11.783  18.001  0.00  0.00    -0.221 NA
ATOM      4  C   UNL     1     -27.167 -12.098  18.685  0.00  0.00    +0.150 A 
ATOM      5  C   UNL     1     -27.234 -12.907  19.827  0.00  0.00    +0.184 A 
ATOM      6  C   UNL     1     -28.500 -13.406  20.206  0.00  0.00    +0.152 A 
ATOM      7  N   UNL     1     -28.659 -14.318  21.296  0.00  0.00    -0.341 N 
ATOM      8  N   UNL     1     -29.598 -13.055  19.483  0.00  0.00    -0.198 NA
ATOM      9  H   UNL     1     -31.608 -12.275  18.017  0.00  0.00    +0.149 HD
ATOM     10  H   UNL     1     -29.617 -14.604  21.595  0.00  0.00    +0.144 HD
ATOM     11  H   UNL     1     -27.849 -14.809  21.733  0.00  0.00    +0.144 HD
ENDROOT
BRANCH   5  12
ATOM     12  N   UNL     1     -26.041 -13.178  20.580  0.00  0.00    +0.061 N 
ATOM     13  O   UNL     1     -26.134 -13.570  21.895  0.00  0.00    -0.126 OA
ATOM     14  O   UNL     1     -24.938 -13.269  20.002  0.00  0.00    -0.126 OA
ENDBRANCH   5  12
BRANCH   1  15
ATOM     15  C   UNL     1     -30.667 -11.048  16.475  0.00  0.00    +0.073 C 
BRANCH  15  17
ATOM     16  C   UNL     1     -31.059 -13.048  14.926  0.00  0.00    +0.006 C 
ATOM     17  C   UNL     1     -31.554 -11.668  15.360  0.00  0.00    +0.019 C 
ENDBRANCH  15  17
BRANCH  15  18
ATOM     18  C   UNL     1     -31.128  -9.624  16.864  0.00  0.00    +0.019 C 
ATOM     19  C   UNL     1     -32.641  -9.435  16.771  0.00  0.00    +0.006 C 
ENDBRANCH  15  18
ENDBRANCH   1  15
TORSDOF 4
ENDMDL
MODEL 3
REMARK VINA RESULT:    -3.594      3.745      5.470
REMARK INTER + INTRA:          -5.052
REMARK INTER:                  -4.632
REMARK INTRA:                  -0.420
REMARK UNBOUND:                -0.618
REMARK  Name = 
REMARK  6 active torsions:
REMARK  status: ('A' for Active; 'I' for Inactive)
REMARK    1  A    between atoms: C_1  and  C_2
REMARK    2  A    between atoms: C_2  and  C_3
REMARK    3  A    between atoms: C_3  and  C_4
REMARK    4  A    between atoms: C_3  and  N_6
REMARK    5  A    between atoms: C_4  and  C_5
REMARK    6  A    between atoms: C_10  and  N_14
REMARK                            x       y       z     vdW  Elec       q    Type
REMARK                         _______ _______ _______ _____ _____    ______ ____
ROOT
ATOM      1  N   UNL     1     -29.060 -14.140  14.893  0.00  0.00    -0.311 N 
ATOM      2  C   UNL     1     -29.356 -13.899  16.275  0.00  0.00    +0.217 A 
ATOM      3  N   UNL     1     -30.607 -14.104  16.763  0.00  0.00    -0.221 NA
ATOM      4  C   UNL     1     -30.897 -13.879  18.068  0.00  0.00    +0.150 A 
ATOM      5  C   UNL     1     -29.900 -13.439  18.949  0.00  0.00    +0.184 A 
ATOM      6  C   UNL     1     -28.612 -13.204  18.420  0.00  0.00    +0.152 A 
ATOM      7  N   UNL     1     -27.554 -12.660  19.215  0.00  0.00    -0.341 N 
ATOM      8  N   UNL     1     -28.378 -13.449  17.102  0.00  0.00    -0.198 NA
ATOM      9  H   UNL     1     -28.078 -13.988  14.569  0.00  0.00    +0.149 HD
ATOM     10  H   UNL     1     -26.595 -12.573  18.810  0.00  0.00    +0.144 HD
ATOM     11  H   UNL     1     -27.725 -12.231  20.149  0.00  0.00    +0.144 HD
ENDROOT
BRANCH   5  12
ATOM     12  N   UNL     1     -30.205 -13.269  20.343  0.00  0.00    +0.061 N 
ATOM     13  O   UNL     1     -29.264 -13.588  21.294  0.00  0.00    -0.126 OA
ATOM     14  O   UNL     1     -31.224 -12.638  20.693  0.00  0.00    -0.126 OA
ENDBRANCH   5  12
BRANCH   1  15
ATOM     15  C   UNL     1     -30.073 -14.622  13.944  0.00  0.00    +0.073 C 
BRANCH  15  17
ATOM     16  C   UNL     1     -31.755 -13.596  12.310  0.00  0.00    +0.006 C 
ATOM     17  C   UNL     1     -31.133 -13.512  13.703  0.00  0.00    +0.019 C 
ENDBRANCH  15  17
BRANCH  15  18
ATOM     18  C   UNL     1     -29.379 -15.062  12.634  0.00  0.00    +0.019 C 
ATOM     19  C   UNL     1     -27.967 -14.498  12.483  0.00  0.00    +0.006 C 
ENDBRANCH  15  18
ENDBRANCH   1  15
TORSDOF 4
ENDMDL
MODEL 4
REMARK VINA RESULT:    -3.492      3.525      5.192
REMARK INTER + INTRA:          -4.927
REMARK INTER:                  -4.307
REMARK INTRA:                  -0.620
REMARK UNBOUND:                -0.618
REMARK  Name = 
REMARK  6 active torsions:
REMARK  status: ('A' for Active; 'I' for Inactive)
REMARK    1  A    between atoms: C_1  and  C_2
REMARK    2  A    between atoms: C_2  and  C_3
REMARK    3  A    between atoms: C_3  and  C_4
REMARK    4  A    between atoms: C_3  and  N_6
REMARK    5  A    between atoms: C_4  and  C_5
REMARK    6  A    between atoms: C_10  and  N_14
REMARK                            x       y       z     vdW  Elec       q    Type
REMARK                         _______ _______ _______ _____ _____    ______ ____
ROOT
ATOM      1  N   UNL     1     -31.539 -13.738  14.995  0.00  0.00    -0.311 N 
ATOM      2  C   UNL     1     -31.061 -13.118  16.196  0.00  0.00    +0.217 A 
ATOM      3  N   UNL     1     -30.488 -11.887  16.160  0.00  0.00    -0.221 NA
ATOM      4  C   UNL     1     -30.032 -11.291  17.290  0.00  0.00    +0.150 A 
ATOM      5  C   UNL     1     -30.156 -11.934  18.529  0.00  0.00    +0.184 A 
ATOM      6  C   UNL     1     -30.730 -13.225  18.544  0.00  0.00    +0.152 A 
ATOM      7  N   UNL     1     -30.810 -14.003  19.742  0.00  0.00    -0.341 N 
ATOM      8  N   UNL     1     -31.171 -13.773  17.380  0.00  0.00    -0.198 NA
ATOM      9  H   UNL     1     -31.992 -14.677  15.076  0.00  0.00    +0.149 HD
ATOM     10  H   UNL     1     -31.309 -14.919  19.731  0.00  0.00    +0.144 HD
ATOM     11  H   UNL     1     -30.283 -13.750  20.606  0.00  0.00    +0.144 HD
ENDROOT
BRANCH   5  12
ATOM     12  N   UNL     1     -29.731 -11.264  19.726  0.00  0.00    +0.061 N 
ATOM     13  O   UNL     1     -29.286 -11.997  20.801  0.00  0.00    -0.126 OA
ATOM     14  O   UNL     1     -29.557 -10.027  19.727  0.00  0.00    -0.126 OA
ENDBRANCH   5  12
BRANCH   1  15
ATOM     15  C   UNL     1     -31.446 -13.087  13.682  0.00  0.00    +0.073 C 
BRANCH  15  17
ATOM     16  C   UNL     1     -29.505 -14.665  13.138  0.00  0.00    +0.006 C 
ATOM     17  C   UNL     1     -30.828 -14.073  12.653  0.00  0.00    +0.019 C 
ENDBRANCH  15  17
BRANCH  15  18
ATOM     18  C   UNL     1     -32.848 -12.596  13.252  0.00  0.00    +0.019 C 
ATOM     19  C   UNL     1     -33.324 -13.212  11.938  0.00  0.00    +0.006 C 
ENDBRANCH  15  18
ENDBRANCH   1  15
TORSDOF 4
ENDMDL
MODEL 5
REMARK VINA RESULT:    -3.473      4.930      6.710
REMARK INTER + INTRA:          -4.903
REMARK INTER:                  -4.632
REMARK INTRA:                  -0.272
REMARK UNBOUND:                -0.618
REMARK  Name = 
REMARK  6 active torsions:
REMARK  status: ('A' for Active; 'I' for Inactive)
REMARK    1  A    between atoms: C_1  and  C_2
REMARK    2  A    between atoms: C_2  and  C_3
REMARK    3  A    between atoms: C_3  and  C_4
REMARK    4  A    between atoms: C_3  and  N_6
REMARK    5  A    between atoms: C_4  and  C_5
REMARK    6  A    between atoms: C_10  and  N_14
REMARK                            x       y       z     vdW  Elec       q    Type
REMARK                         _______ _______ _______ _____ _____    ______ ____
ROOT
ATOM      1  N   UNL     1     -32.013 -11.887  14.037  0.00  0.00    -0.311 N 
ATOM      2  C   UNL     1     -31.698 -11.142  15.221  0.00  0.00    +0.217 A 
ATOM      3  N   UNL     1     -30.611 -11.459  15.971  0.00  0.00    -0.221 NA
ATOM      4  C   UNL     1     -30.304 -10.760  17.093  0.00  0.00    +0.150 A 
ATOM      5  C   UNL     1     -31.104  -9.683  17.496  0.00  0.00    +0.184 A 
ATOM      6  C   UNL     1     -32.246  -9.385  16.720  0.00  0.00    +0.152 A 
ATOM      7  N   UNL     1     -33.178  -8.369  17.104  0.00  0.00    -0.341 N 
ATOM      8  N   UNL     1     -32.503 -10.118  15.604  0.00  0.00    -0.198 NA
ATOM      9  H   UNL     1     -32.848 -11.592  13.481  0.00  0.00    +0.149 HD
ATOM     10  H   UNL     1     -33.967  -8.125  16.467  0.00  0.00    +0.144 HD
ATOM     11  H   UNL     1     -33.173  -7.941  18.055  0.00  0.00    +0.144 HD
ENDROOT
BRANCH   5  12
ATOM     12  N   UNL     1     -30.730  -8.910  18.648  0.00  0.00    +0.061 N 
ATOM     13  O   UNL     1     -31.650  -8.078  19.244  0.00  0.00    -0.126 OA
ATOM     14  O   UNL     1     -29.657  -9.143  19.242  0.00  0.00    -0.126 OA
ENDBRANCH   5  12
BRANCH   1  15
ATOM     15  C   UNL     1     -31.188 -13.009  13.570  0.00  0.00    +0.073 C 
BRANCH  15  17
ATOM     16  C   UNL     1     -29.840 -14.904  14.641  0.00  0.00    +0.006 C 
ATOM     17  C   UNL     1     -31.151 -14.117  14.658  0.00  0.00    +0.019 C 
ENDBRANCH  15  17
BRANCH  15  18
ATOM     18  C   UNL     1     -31.743 -13.529  12.224  0.00  0.00    +0.019 C 
ATOM     19  C   UNL     1     -33.166 -13.052  11.938  0.00  0.00    +0.006 C 
ENDBRANCH  15  18
ENDBRANCH   1  15
TORSDOF 4
ENDMDL
MODEL 6
REMARK VINA RESULT:    -3.455      3.556      4.843
REMARK INTER + INTRA:          -4.881
REMARK INTER:                  -4.268
REMARK INTRA:                  -0.613
REMARK UNBOUND:                -0.618
REMARK  Name = 
REMARK  6 active torsions:
REMARK  status: ('A' for Active; 'I' for Inactive)
REMARK    1  A    between atoms: C_1  and  C_2
REMARK    2  A    between atoms: C_2  and  C_3
REMARK    3  A    between atoms: C_3  and  C_4
REMARK    4  A    between atoms: C_3  and  N_6
REMARK    5  A    between atoms: C_4  and  C_5
REMARK    6  A    between atoms: C_10  and  N_14
REMARK                            x       y       z     vdW  Elec       q    Type
REMARK                         _______ _______ _______ _____ _____    ______ ____
ROOT
ATOM      1  N   UNL     1     -33.042 -12.651  14.894  0.00  0.00    -0.311 N 
ATOM      2  C   UNL     1     -31.912 -12.557  15.771  0.00  0.00    +0.217 A 
ATOM      3  N   UNL     1     -31.229 -11.390  15.900  0.00  0.00    -0.221 NA
ATOM      4  C   UNL     1     -30.159 -11.290  16.727  0.00  0.00    +0.150 A 
ATOM      5  C   UNL     1     -29.742 -12.395  17.481  0.00  0.00    +0.184 A 
ATOM      6  C   UNL     1     -30.446 -13.608  17.316  0.00  0.00    +0.152 A 
ATOM      7  N   UNL     1     -30.038 -14.816  17.964  0.00  0.00    -0.341 N 
ATOM      8  N   UNL     1     -31.513 -13.649  16.473  0.00  0.00    -0.198 NA
ATOM      9  H   UNL     1     -33.548 -13.564  14.845  0.00  0.00    +0.149 HD
ATOM     10  H   UNL     1     -30.627 -15.673  17.880  0.00  0.00    +0.144 HD
ATOM     11  H   UNL     1     -29.107 -14.912  18.423  0.00  0.00    +0.144 HD
ENDROOT
BRANCH   5  12
ATOM     12  N   UNL     1     -28.649 -12.257  18.404  0.00  0.00    +0.061 N 
ATOM     13  O   UNL     1     -27.708 -13.256  18.507  0.00  0.00    -0.126 OA
ATOM     14  O   UNL     1     -28.423 -11.159  18.953  0.00  0.00    -0.126 OA
ENDBRANCH   5  12
BRANCH   1  15
ATOM     15  C   UNL     1     -33.522 -11.510  14.104  0.00  0.00    +0.073 C 
BRANCH  15  17
ATOM     16  C   UNL     1     -33.292 -13.049  12.071  0.00  0.00    +0.006 C 
ATOM     17  C   UNL     1     -34.169 -12.022  12.787  0.00  0.00    +0.019 C 
ENDBRANCH  15  17
BRANCH  15  18
ATOM     18  C   UNL     1     -34.508 -10.675  14.954  0.00  0.00    +0.019 C 
ATOM     19  C   UNL     1     -34.569  -9.208  14.535  0.00  0.00    +0.006 C 
ENDBRANCH  15  18
ENDBRANCH   1  15
TORSDOF 4
ENDMDL
MODEL 7
REMARK VINA RESULT:    -3.316      5.627      7.198
REMARK INTER + INTRA:          -4.710
REMARK INTER:                  -4.043
REMARK INTRA:                  -0.667
REMARK UNBOUND:                -0.618
REMARK  Name = 
REMARK  6 active torsions:
REMARK  status: ('A' for Active; 'I' for Inactive)
REMARK    1  A    between atoms: C_1  and  C_2
REMARK    2  A    between atoms: C_2  and  C_3
REMARK    3  A    between atoms: C_3  and  C_4
REMARK    4  A    between atoms: C_3  and  N_6
REMARK    5  A    between atoms: C_4  and  C_5
REMARK    6  A    between atoms: C_10  and  N_14
REMARK                            x       y       z     vdW  Elec       q    Type
REMARK                         _______ _______ _______ _____ _____    ______ ____
ROOT
ATOM      1  N   UNL     1     -31.679 -11.950  13.920  0.00  0.00    -0.311 N 
ATOM      2  C   UNL     1     -32.164 -11.617  15.227  0.00  0.00    +0.217 A 
ATOM      3  N   UNL     1     -32.748 -12.560  16.011  0.00  0.00    -0.221 NA
ATOM      4  C   UNL     1     -33.210 -12.255  17.249  0.00  0.00    +0.150 A 
ATOM      5  C   UNL     1     -33.083 -10.954  17.752  0.00  0.00    +0.184 A 
ATOM      6  C   UNL     1     -32.499  -9.980  16.913  0.00  0.00    +0.152 A 
ATOM      7  N   UNL     1     -32.414  -8.603  17.296  0.00  0.00    -0.341 N 
ATOM      8  N   UNL     1     -32.051 -10.342  15.681  0.00  0.00    -0.198 NA
ATOM      9  H   UNL     1     -31.218 -11.196  13.362  0.00  0.00    +0.149 HD
ATOM     10  H   UNL     1     -31.907  -7.927  16.684  0.00  0.00    +0.144 HD
ATOM     11  H   UNL     1     -32.944  -8.218  18.106  0.00  0.00    +0.144 HD
ENDROOT
BRANCH   5  12
ATOM     12  N   UNL     1     -33.516 -10.661  19.090  0.00  0.00    +0.061 N 
ATOM     13  O   UNL     1     -33.147 -11.487  20.127  0.00  0.00    -0.126 OA
ATOM     14  O   UNL     1     -34.039  -9.559  19.357  0.00  0.00    -0.126 OA
ENDBRANCH   5  12
BRANCH   1  15
ATOM     15  C   UNL     1     -31.775 -13.308  13.367  0.00  0.00    +0.073 C 
BRANCH  15  17
ATOM     16  C   UNL     1     -33.817 -12.723  11.938  0.00  0.00    +0.006 C 
ATOM     17  C   UNL     1     -32.381 -13.247  11.938  0.00  0.00    +0.019 C 
ENDBRANCH  15  17
BRANCH  15  18
ATOM     18  C   UNL     1     -30.377 -13.968  13.382  0.00  0.00    +0.019 C 
ATOM     19  C   UNL     1     -30.128 -14.820  14.625  0.00  0.00    +0.006 C 
ENDBRANCH  15  18
ENDBRANCH   1  15
TORSDOF 4
ENDMDL
MODEL 8
REMARK VINA RESULT:    -3.302      2.266      2.805
REMARK INTER + INTRA:          -4.692
REMARK INTER:                  -4.090
REMARK INTRA:                  -0.602
REMARK UNBOUND:                -0.618
REMARK  Name = 
REMARK  6 active torsions:
REMARK  status: ('A' for Active; 'I' for Inactive)
REMARK    1  A    between atoms: C_1  and  C_2
REMARK    2  A    between atoms: C_2  and  C_3
REMARK    3  A    between atoms: C_3  and  C_4
REMARK    4  A    between atoms: C_3  and  N_6
REMARK    5  A    between atoms: C_4  and  C_5
REMARK    6  A    between atoms: C_10  and  N_14
REMARK                            x       y       z     vdW  Elec       q    Type
REMARK                         _______ _______ _______ _____ _____    ______ ____
ROOT
ATOM      1  N   UNL     1     -32.552 -11.941  17.916  0.00  0.00    -0.311 N 
ATOM      2  C   UNL     1     -31.136 -11.956  18.135  0.00  0.00    +0.217 A 
ATOM      3  N   UNL     1     -30.352 -10.947  17.674  0.00  0.00    -0.221 NA
ATOM      4  C   UNL     1     -29.010 -10.952  17.876  0.00  0.00    +0.150 A 
ATOM      5  C   UNL     1     -28.404 -12.001  18.581  0.00  0.00    +0.184 A 
ATOM      6  C   UNL     1     -29.230 -13.055  19.029  0.00  0.00    +0.152 A 
ATOM      7  N   UNL     1     -28.694 -14.216  19.670  0.00  0.00    -0.341 N 
ATOM      8  N   UNL     1     -30.570 -12.997  18.800  0.00  0.00    -0.198 NA
ATOM      9  H   UNL     1     -33.117 -12.729  18.309  0.00  0.00    +0.149 HD
ATOM     10  H   UNL     1     -29.341 -14.938  20.057  0.00  0.00    +0.144 HD
ATOM     11  H   UNL     1     -27.675 -14.435  19.662  0.00  0.00    +0.144 HD
ENDROOT
BRANCH   5  12
ATOM     12  N   UNL     1     -26.993 -11.960  18.845  0.00  0.00    +0.061 N 
ATOM     13  O   UNL     1     -26.382 -13.020  19.474  0.00  0.00    -0.126 OA
ATOM     14  O   UNL     1     -26.280 -11.077  18.325  0.00  0.00    -0.126 OA
ENDBRANCH   5  12
BRANCH   1  15
ATOM     15  C   UNL     1     -33.227 -10.850  17.201  0.00  0.00    +0.073 C 
BRANCH  15  17
ATOM     16  C   UNL     1     -34.109 -10.673  14.805  0.00  0.00    +0.006 C 
ATOM     17  C   UNL     1     -34.178 -11.441  16.125  0.00  0.00    +0.019 C 
ENDBRANCH  15  17
BRANCH  15  18
ATOM     18  C   UNL     1     -33.975  -9.956  18.217  0.00  0.00    +0.019 C 
ATOM     19  C   UNL     1     -33.399  -8.545  18.315  0.00  0.00    +0.006 C 
ENDBRANCH  15  18
ENDBRANCH   1  15
TORSDOF 4
ENDMDL
MODEL 9
REMARK VINA RESULT:    -3.234      2.216      3.657
REMARK INTER + INTRA:          -4.608
REMARK INTER:                  -3.925
REMARK INTRA:                  -0.683
REMARK UNBOUND:                -0.618
REMARK  Name = 
REMARK  6 active torsions:
REMARK  status: ('A' for Active; 'I' for Inactive)
REMARK    1  A    between atoms: C_1  and  C_2
REMARK    2  A    between atoms: C_2  and  C_3
REMARK    3  A    between atoms: C_3  and  C_4
REMARK    4  A    between atoms: C_3  and  N_6
REMARK    5  A    between atoms: C_4  and  C_5
REMARK    6  A    between atoms: C_10  and  N_14
REMARK                            x       y       z     vdW  Elec       q    Type
REMARK                         _______ _______ _______ _____ _____    ______ ____
ROOT
ATOM      1  N   UNL     1     -30.070  -9.950  17.249  0.00  0.00    -0.311 N 
ATOM      2  C   UNL     1     -29.279 -10.892  17.985  0.00  0.00    +0.217 A 
ATOM      3  N   UNL     1     -29.872 -11.856  18.738  0.00  0.00    -0.221 NA
ATOM      4  C   UNL     1     -29.133 -12.753  19.438  0.00  0.00    +0.150 A 
ATOM      5  C   UNL     1     -27.734 -12.710  19.388  0.00  0.00    +0.184 A 
ATOM      6  C   UNL     1     -27.134 -11.685  18.623  0.00  0.00    +0.152 A 
ATOM      7  N   UNL     1     -25.717 -11.497  18.588  0.00  0.00    -0.341 N 
ATOM      8  N   UNL     1     -27.924 -10.814  17.940  0.00  0.00    -0.198 NA
ATOM      9  H   UNL     1     -29.569  -9.240  16.668  0.00  0.00    +0.149 HD
ATOM     10  H   UNL     1     -25.305 -10.779  17.952  0.00  0.00    +0.144 HD
ATOM     11  H   UNL     1     -25.077 -11.966  19.265  0.00  0.00    +0.144 HD
ENDROOT
BRANCH   5  12
ATOM     12  N   UNL     1     -26.965 -13.707  20.080  0.00  0.00    +0.061 N 
ATOM     13  O   UNL     1     -27.595 -14.602  20.914  0.00  0.00    -0.126 OA
ATOM     14  O   UNL     1     -25.772 -13.909  19.773  0.00  0.00    -0.126 OA
ENDBRANCH   5  12
BRANCH   1  15
ATOM     15  C   UNL     1     -31.538  -9.975  17.260  0.00  0.00    +0.073 C 
BRANCH  15  17
ATOM     16  C   UNL     1     -32.478  -9.380  19.565  0.00  0.00    +0.006 C 
ATOM     17  C   UNL     1     -32.073  -8.851  18.189  0.00  0.00    +0.019 C 
ENDBRANCH  15  17
BRANCH  15  18
ATOM     18  C   UNL     1     -32.064  -9.837  15.812  0.00  0.00    +0.019 C 
ATOM     19  C   UNL     1     -31.834 -11.089  14.967  0.00  0.00    +0.006 C 
ENDBRANCH  15  18
ENDBRANCH   1  15
TORSDOF 4
ENDMDL
