MODEL 1
REMARK VINA RESULT:    -5.546      0.000      0.000
REMARK INTER + INTRA:          -8.695
REMARK INTER:                  -7.653
REMARK INTRA:                  -1.042
REMARK UNBOUND:                -1.042
REMARK  Name = 
REMARK  8 active torsions:
REMARK  status: ('A' for Active; 'I' for Inactive)
REMARK    1  A    between atoms: C_1  and  C_2
REMARK    2  A    between atoms: C_2  and  C_4
REMARK    3  A    between atoms: C_7  and  N_10
REMARK    4  A    between atoms: C_11  and  C_13
REMARK    5  A    between atoms: C_13  and  C_14
REMARK    6  A    between atoms: C_14  and  C_15
REMARK    7  A    between atoms: C_14  and  C_18
REMARK    8  A    between atoms: C_15  and  O_17
REMARK                            x       y       z     vdW  Elec       q    Type
REMARK                         _______ _______ _______ _____ _____    ______ ____
ROOT
ATOM      1  N   UNL     1     -30.007 -11.499  16.847  0.00  0.00    -0.285 N 
ATOM      2  C   UNL     1     -30.818 -10.316  16.913  0.00  0.00    +0.218 C 
ATOM      3  O   UNL     1     -30.685  -9.501  17.866  0.00  0.00    -0.275 OA
ATOM      4  H   UNL     1     -29.845 -11.926  15.907  0.00  0.00    +0.155 HD
ENDROOT
BRANCH   1   8
ATOM      5  C   UNL     1     -28.228 -13.478  20.179  0.00  0.00    +0.017 A 
ATOM      6  C   UNL     1     -27.450 -12.719  19.283  0.00  0.00    +0.013 A 
ATOM      7  C   UNL     1     -28.046 -12.068  18.199  0.00  0.00    +0.024 A 
ATOM      8  C   UNL     1     -29.430 -12.145  17.994  0.00  0.00    +0.033 A 
ATOM      9  C   UNL     1     -30.208 -12.915  18.874  0.00  0.00    +0.024 A 
ATOM     10  C   UNL     1     -29.615 -13.569  19.956  0.00  0.00    +0.013 A 
BRANCH   5  12
ATOM     11  C   UNL     1     -26.159 -14.029  21.674  0.00  0.00    +0.091 C 
ATOM     12  C   UNL     1     -27.611 -14.181  21.337  0.00  0.00    +0.160 C 
ATOM     13  O   UNL     1     -28.319 -14.932  22.062  0.00  0.00    -0.292 OA
ENDBRANCH   5  12
ENDBRANCH   1   8
BRANCH   2  14
ATOM     14  C   UNL     1     -31.856 -10.061  15.860  0.00  0.00    +0.115 C 
BRANCH  14  15
ATOM     15  C   UNL     1     -32.864 -11.227  15.783  0.00  0.00    +0.136 C 
BRANCH  15  16
ATOM     16  C   UNL     1     -32.855 -11.891  14.418  0.00  0.00    -0.033 A 
ATOM     17  C   UNL     1     -31.801 -12.744  14.033  0.00  0.00    +0.004 A 
ATOM     18  C   UNL     1     -31.836 -13.397  12.798  0.00  0.00    +0.000 A 
ATOM     19  C   UNL     1     -32.920 -13.213  11.938  0.00  0.00    +0.000 A 
ATOM     20  C   UNL     1     -33.971 -12.371  12.310  0.00  0.00    +0.000 A 
ATOM     21  C   UNL     1     -33.940 -11.713  13.541  0.00  0.00    +0.004 A 
ENDBRANCH  15  16
BRANCH  15  22
ATOM     22  C   UNL     1     -34.257 -10.772  16.133  0.00  0.00    +0.313 C 
ATOM     23  O   UNL     1     -35.062 -11.581  16.669  0.00  0.00    -0.250 OA
BRANCH  22  24
ATOM     24  O   UNL     1     -34.679  -9.481  15.827  0.00  0.00    -0.480 OA
ATOM     25  H   UNL     1     -35.086  -9.267  14.924  0.00  0.00    +0.295 HD
ENDBRANCH  22  24
ENDBRANCH  15  22
ENDBRANCH  14  15
ENDBRANCH   2  14
TORSDOF 7
ENDMDL
MODEL 2
REMARK VINA RESULT:    -5.020      2.105      7.589
REMARK INTER + INTRA:          -7.969
REMARK INTER:                  -7.029
REMARK INTRA:                  -0.940
REMARK UNBOUND:                -1.042
REMARK  Name = 
REMARK  8 active torsions:
REMARK  status: ('A' for Active; 'I' for Inactive)
REMARK    1  A    between atoms: C_1  and  C_2
REMARK    2  A    between atoms: C_2  and  C_4
REMARK    3  A    between atoms: C_7  and  N_10
REMARK    4  A    between atoms: C_11  and  C_13
REMARK    5  A    between atoms: C_13  and  C_14
REMARK    6  A    between atoms: C_14  and  C_15
REMARK    7  A    between atoms: C_14  and  C_18
REMARK    8  A    between atoms: C_15  and  O_17
REMARK                            x       y       z     vdW  Elec       q    Type
REMARK                         _______ _______ _______ _____ _____    ______ ____
ROOT
ATOM      1  N   UNL     1     -29.443 -11.505  17.486  0.00  0.00    -0.285 N 
ATOM      2  C   UNL     1     -28.515 -12.520  17.898  0.00  0.00    +0.218 C 
ATOM      3  O   UNL     1     -28.165 -13.430  17.099  0.00  0.00    -0.275 OA
ATOM      4  H   UNL     1     -29.411 -10.586  17.982  0.00  0.00    +0.155 HD
ENDROOT
BRANCH   1   8
ATOM      5  C   UNL     1     -32.440 -11.991  14.492  0.00  0.00    +0.017 A 
ATOM      6  C   UNL     1     -32.112 -10.716  14.992  0.00  0.00    +0.013 A 
ATOM      7  C   UNL     1     -31.121 -10.569  15.967  0.00  0.00    +0.024 A 
ATOM      8  C   UNL     1     -30.427 -11.684  16.453  0.00  0.00    +0.033 A 
ATOM      9  C   UNL     1     -30.762 -12.960  15.971  0.00  0.00    +0.024 A 
ATOM     10  C   UNL     1     -31.754 -13.111  14.998  0.00  0.00    +0.013 A 
BRANCH   5  12
ATOM     11  C   UNL     1     -33.169 -12.610  12.061  0.00  0.00    +0.091 C 
ATOM     12  C   UNL     1     -33.494 -12.169  13.456  0.00  0.00    +0.160 C 
ATOM     13  O   UNL     1     -34.701 -11.944  13.747  0.00  0.00    -0.292 OA
ENDBRANCH   5  12
ENDBRANCH   1   8
BRANCH   2  14
ATOM     14  C   UNL     1     -27.983 -12.522  19.302  0.00  0.00    +0.115 C 
BRANCH  14  15
ATOM     15  C   UNL     1     -28.926 -13.293  20.250  0.00  0.00    +0.136 C 
BRANCH  15  16
ATOM     16  C   UNL     1     -30.078 -12.427  20.726  0.00  0.00    -0.033 A 
ATOM     17  C   UNL     1     -29.874 -11.399  21.669  0.00  0.00    +0.004 A 
ATOM     18  C   UNL     1     -30.932 -10.570  22.051  0.00  0.00    +0.000 A 
ATOM     19  C   UNL     1     -32.201 -10.752  21.497  0.00  0.00    +0.000 A 
ATOM     20  C   UNL     1     -32.415 -11.765  20.560  0.00  0.00    +0.000 A 
ATOM     21  C   UNL     1     -31.362 -12.599  20.176  0.00  0.00    +0.004 A 
ENDBRANCH  15  16
BRANCH  15  22
ATOM     22  C   UNL     1     -28.177 -13.859  21.428  0.00  0.00    +0.313 C 
ATOM     23  O   UNL     1     -27.116 -13.303  21.820  0.00  0.00    -0.250 OA
BRANCH  22  24
ATOM     24  O   UNL     1     -28.620 -15.020  22.057  0.00  0.00    -0.480 OA
ATOM     25  H   UNL     1     -29.606 -15.173  22.233  0.00  0.00    +0.295 HD
ENDBRANCH  22  24
ENDBRANCH  15  22
ENDBRANCH  14  15
ENDBRANCH   2  14
TORSDOF 7
ENDMDL
MODEL 3
REMARK VINA RESULT:    -5.011      1.653      2.140
REMARK INTER + INTRA:          -7.958
REMARK INTER:                  -6.648
REMARK INTRA:                  -1.310
REMARK UNBOUND:                -1.042
REMARK  Name = 
REMARK  8 active torsions:
REMARK  status: ('A' for Active; 'I' for Inactive)
REMARK    1  A    between atoms: C_1  and  C_2
REMARK    2  A    between atoms: C_2  and  C_4
REMARK    3  A    between atoms: C_7  and  N_10
REMARK    4  A    between atoms: C_11  and  C_13
REMARK    5  A    between atoms: C_13  and  C_14
REMARK    6  A    between atoms: C_14  and  C_15
REMARK    7  A    between atoms: C_14  and  C_18
REMARK    8  A    between atoms: C_15  and  O_17
REMARK                            x       y       z     vdW  Elec       q    Type
REMARK                         _______ _______ _______ _____ _____    ______ ____
ROOT
ATOM      1  N   UNL     1     -29.746 -10.541  17.781  0.00  0.00    -0.285 N 
ATOM      2  C   UNL     1     -31.032  -9.940  17.998  0.00  0.00    +0.218 C 
ATOM      3  O   UNL     1     -31.476  -9.784  19.167  0.00  0.00    -0.275 OA
ATOM      4  H   UNL     1     -29.242 -10.305  16.896  0.00  0.00    +0.155 HD
ENDROOT
BRANCH   1   8
ATOM      5  C   UNL     1     -27.865 -13.339  20.392  0.00  0.00    +0.017 A 
ATOM      6  C   UNL     1     -27.121 -12.627  19.431  0.00  0.00    +0.013 A 
ATOM      7  C   UNL     1     -27.748 -11.706  18.586  0.00  0.00    +0.024 A 
ATOM      8  C   UNL     1     -29.123 -11.462  18.692  0.00  0.00    +0.033 A 
ATOM      9  C   UNL     1     -29.873 -12.182  19.636  0.00  0.00    +0.024 A 
ATOM     10  C   UNL     1     -29.250 -13.105  20.480  0.00  0.00    +0.013 A 
BRANCH   5  12
ATOM     11  C   UNL     1     -25.730 -14.511  21.334  0.00  0.00    +0.091 C 
ATOM     12  C   UNL     1     -27.217 -14.326  21.298  0.00  0.00    +0.160 C 
ATOM     13  O   UNL     1     -27.927 -15.034  22.062  0.00  0.00    -0.292 OA
ENDBRANCH   5  12
ENDBRANCH   1   8
BRANCH   2  14
ATOM     14  C   UNL     1     -31.871  -9.526  16.824  0.00  0.00    +0.115 C 
BRANCH  14  15
ATOM     15  C   UNL     1     -32.884 -10.629  16.452  0.00  0.00    +0.136 C 
BRANCH  15  16
ATOM     16  C   UNL     1     -32.196 -11.952  16.166  0.00  0.00    -0.033 A 
ATOM     17  C   UNL     1     -31.320 -12.095  15.071  0.00  0.00    +0.004 A 
ATOM     18  C   UNL     1     -30.646 -13.300  14.857  0.00  0.00    +0.000 A 
ATOM     19  C   UNL     1     -30.834 -14.373  15.732  0.00  0.00    +0.000 A 
ATOM     20  C   UNL     1     -31.698 -14.243  16.821  0.00  0.00    +0.000 A 
ATOM     21  C   UNL     1     -32.377 -13.042  17.039  0.00  0.00    +0.004 A 
ENDBRANCH  15  16
BRANCH  15  22
ATOM     22  C   UNL     1     -33.736 -10.220  15.279  0.00  0.00    +0.313 C 
ATOM     23  O   UNL     1     -33.900  -8.997  15.024  0.00  0.00    -0.250 OA
BRANCH  22  24
ATOM     24  O   UNL     1     -34.383 -11.179  14.504  0.00  0.00    -0.480 OA
ATOM     25  H   UNL     1     -34.060 -12.139  14.488  0.00  0.00    +0.295 HD
ENDBRANCH  22  24
ENDBRANCH  15  22
ENDBRANCH  14  15
ENDBRANCH   2  14
TORSDOF 7
ENDMDL
MODEL 4
REMARK VINA RESULT:    -4.953      2.194      7.083
REMARK INTER + INTRA:          -7.877
REMARK INTER:                  -6.284
REMARK INTRA:                  -1.593
REMARK UNBOUND:                -1.042
REMARK  Name = 
REMARK  8 active torsions:
REMARK  status: ('A' for Active; 'I' for Inactive)
REMARK    1  A    between atoms: C_1  and  C_2
REMARK    2  A    between atoms: C_2  and  C_4
REMARK    3  A    between atoms: C_7  and  N_10
REMARK    4  A    between atoms: C_11  and  C_13
REMARK    5  A    between atoms: C_13  and  C_14
REMARK    6  A    between atoms: C_14  and  C_15
REMARK    7  A    between atoms: C_14  and  C_18
REMARK    8  A    between atoms: C_15  and  O_17
REMARK                            x       y       z     vdW  Elec       q    Type
REMARK                         _______ _______ _______ _____ _____    ______ ____
ROOT
ATOM      1  N   UNL     1     -31.100 -10.263  18.800  0.00  0.00    -0.285 N 
ATOM      2  C   UNL     1     -29.672 -10.400  18.737  0.00  0.00    +0.218 C 
ATOM      3  O   UNL     1     -29.011  -9.804  17.845  0.00  0.00    -0.275 OA
ATOM      4  H   UNL     1     -31.564 -10.415  19.725  0.00  0.00    +0.155 HD
ENDROOT
BRANCH   1   8
ATOM      5  C   UNL     1     -33.656  -9.394  15.499  0.00  0.00    +0.017 A 
ATOM      6  C   UNL     1     -33.856  -8.786  16.754  0.00  0.00    +0.013 A 
ATOM      7  C   UNL     1     -33.006  -9.073  17.826  0.00  0.00    +0.024 A 
ATOM      8  C   UNL     1     -31.931  -9.957  17.668  0.00  0.00    +0.033 A 
ATOM      9  C   UNL     1     -31.738 -10.579  16.424  0.00  0.00    +0.024 A 
ATOM     10  C   UNL     1     -32.587 -10.297  15.352  0.00  0.00    +0.013 A 
BRANCH   5  12
ATOM     11  C   UNL     1     -35.061 -10.189  13.446  0.00  0.00    +0.091 C 
ATOM     12  C   UNL     1     -34.552  -9.104  14.347  0.00  0.00    +0.160 C 
ATOM     13  O   UNL     1     -34.901  -7.915  14.109  0.00  0.00    -0.292 OA
ENDBRANCH   5  12
ENDBRANCH   1   8
BRANCH   2  14
ATOM     14  C   UNL     1     -28.962 -11.287  19.718  0.00  0.00    +0.115 C 
BRANCH  14  15
ATOM     15  C   UNL     1     -28.277 -12.469  19.000  0.00  0.00    +0.136 C 
BRANCH  15  16
ATOM     16  C   UNL     1     -29.237 -13.203  18.081  0.00  0.00    -0.033 A 
ATOM     17  C   UNL     1     -30.485 -13.661  18.551  0.00  0.00    +0.004 A 
ATOM     18  C   UNL     1     -31.384 -14.280  17.678  0.00  0.00    +0.000 A 
ATOM     19  C   UNL     1     -31.053 -14.445  16.331  0.00  0.00    +0.000 A 
ATOM     20  C   UNL     1     -29.821 -13.994  15.855  0.00  0.00    +0.000 A 
ATOM     21  C   UNL     1     -28.916 -13.377  16.723  0.00  0.00    +0.004 A 
ENDBRANCH  15  16
BRANCH  15  22
ATOM     22  C   UNL     1     -27.661 -13.427  19.985  0.00  0.00    +0.313 C 
ATOM     23  O   UNL     1     -27.988 -13.369  21.201  0.00  0.00    -0.250 OA
BRANCH  22  24
ATOM     24  O   UNL     1     -26.698 -14.345  19.573  0.00  0.00    -0.480 OA
ATOM     25  H   UNL     1     -26.169 -14.197  18.722  0.00  0.00    +0.295 HD
ENDBRANCH  22  24
ENDBRANCH  15  22
ENDBRANCH  14  15
ENDBRANCH   2  14
TORSDOF 7
ENDMDL
MODEL 5
REMARK VINA RESULT:    -4.920      2.706      6.927
REMARK INTER + INTRA:          -7.831
REMARK INTER:                  -7.198
REMARK INTRA:                  -0.633
REMARK UNBOUND:                -1.042
REMARK  Name = 
REMARK  8 active torsions:
REMARK  status: ('A' for Active; 'I' for Inactive)
REMARK    1  A    between atoms: C_1  and  C_2
REMARK    2  A    between atoms: C_2  and  C_4
REMARK    3  A    between atoms: C_7  and  N_10
REMARK    4  A    between atoms: C_11  and  C_13
REMARK    5  A    between atoms: C_13  and  C_14
REMARK    6  A    between atoms: C_14  and  C_15
REMARK    7  A    between atoms: C_14  and  C_18
REMARK    8  A    between atoms: C_15  and  O_17
REMARK                            x       y       z     vdW  Elec       q    Type
REMARK                         _______ _______ _______ _____ _____    ______ ____
ROOT
ATOM      1  N   UNL     1     -29.817 -14.257  18.231  0.00  0.00    -0.285 N 
ATOM      2  C   UNL     1     -30.379 -13.601  19.379  0.00  0.00    +0.218 C 
ATOM      3  O   UNL     1     -31.597 -13.276  19.398  0.00  0.00    -0.275 OA
ATOM      4  H   UNL     1     -28.970 -14.852  18.377  0.00  0.00    +0.155 HD
ENDROOT
BRANCH   1   8
ATOM      5  C   UNL     1     -31.245 -13.814  14.237  0.00  0.00    +0.017 A 
ATOM      6  C   UNL     1     -30.095 -14.577  14.518  0.00  0.00    +0.013 A 
ATOM      7  C   UNL     1     -29.642 -14.721  15.833  0.00  0.00    +0.024 A 
ATOM      8  C   UNL     1     -30.332 -14.124  16.895  0.00  0.00    +0.033 A 
ATOM      9  C   UNL     1     -31.469 -13.348  16.619  0.00  0.00    +0.024 A 
ATOM     10  C   UNL     1     -31.923 -13.199  15.307  0.00  0.00    +0.013 A 
BRANCH   5  12
ATOM     11  C   UNL     1     -32.716 -12.568  12.475  0.00  0.00    +0.091 C 
ATOM     12  C   UNL     1     -31.741 -13.645  12.845  0.00  0.00    +0.160 C 
ATOM     13  O   UNL     1     -31.338 -14.425  11.938  0.00  0.00    -0.292 OA
ENDBRANCH   5  12
ENDBRANCH   1   8
BRANCH   2  14
ATOM     14  C   UNL     1     -29.504 -13.267  20.552  0.00  0.00    +0.115 C 
BRANCH  14  15
ATOM     15  C   UNL     1     -28.572 -12.081  20.226  0.00  0.00    +0.136 C 
BRANCH  15  16
ATOM     16  C   UNL     1     -29.293 -10.993  19.451  0.00  0.00    -0.033 A 
ATOM     17  C   UNL     1     -29.128 -10.862  18.058  0.00  0.00    +0.004 A 
ATOM     18  C   UNL     1     -29.847  -9.895  17.349  0.00  0.00    +0.000 A 
ATOM     19  C   UNL     1     -30.737  -9.053  18.018  0.00  0.00    +0.000 A 
ATOM     20  C   UNL     1     -30.910  -9.175  19.398  0.00  0.00    +0.000 A 
ATOM     21  C   UNL     1     -30.193 -10.137  20.113  0.00  0.00    +0.004 A 
ENDBRANCH  15  16
BRANCH  15  22
ATOM     22  C   UNL     1     -27.349 -12.535  19.474  0.00  0.00    +0.313 C 
ATOM     23  O   UNL     1     -26.494 -11.687  19.101  0.00  0.00    -0.250 OA
BRANCH  22  24
ATOM     24  O   UNL     1     -27.177 -13.877  19.144  0.00  0.00    -0.480 OA
ATOM     25  H   UNL     1     -26.508 -14.158  18.438  0.00  0.00    +0.295 HD
ENDBRANCH  22  24
ENDBRANCH  15  22
ENDBRANCH  14  15
ENDBRANCH   2  14
TORSDOF 7
ENDMDL
MODEL 6
REMARK VINA RESULT:    -4.610      1.552      2.357
REMARK INTER + INTRA:          -7.403
REMARK INTER:                  -7.326
REMARK INTRA:                  -0.078
REMARK UNBOUND:                -1.042
REMARK  Name = 
REMARK  8 active torsions:
REMARK  status: ('A' for Active; 'I' for Inactive)
REMARK    1  A    between atoms: C_1  and  C_2
REMARK    2  A    between atoms: C_2  and  C_4
REMARK    3  A    between atoms: C_7  and  N_10
REMARK    4  A    between atoms: C_11  and  C_13
REMARK    5  A    between atoms: C_13  and  C_14
REMARK    6  A    between atoms: C_14  and  C_15
REMARK    7  A    between atoms: C_14  and  C_18
REMARK    8  A    between atoms: C_15  and  O_17
REMARK                            x       y       z     vdW  Elec       q    Type
REMARK                         _______ _______ _______ _____ _____    ______ ____
ROOT
ATOM      1  N   UNL     1     -32.274 -12.005  18.442  0.00  0.00    -0.285 N 
ATOM      2  C   UNL     1     -32.949 -12.514  17.282  0.00  0.00    +0.218 C 
ATOM      3  O   UNL     1     -32.686 -13.666  16.842  0.00  0.00    -0.275 OA
ATOM      4  H   UNL     1     -32.759 -11.269  19.005  0.00  0.00    +0.155 HD
ENDROOT
BRANCH   1   8
ATOM      5  C   UNL     1     -28.391 -13.169  19.767  0.00  0.00    +0.017 A 
ATOM      6  C   UNL     1     -29.503 -13.231  20.630  0.00  0.00    +0.013 A 
ATOM      7  C   UNL     1     -30.772 -12.854  20.181  0.00  0.00    +0.024 A 
ATOM      8  C   UNL     1     -30.964 -12.425  18.862  0.00  0.00    +0.033 A 
ATOM      9  C   UNL     1     -29.856 -12.344  18.003  0.00  0.00    +0.024 A 
ATOM     10  C   UNL     1     -28.586 -12.717  18.448  0.00  0.00    +0.013 A 
BRANCH   5  12
ATOM     11  C   UNL     1     -26.824 -14.510  21.369  0.00  0.00    +0.091 C 
ATOM     12  C   UNL     1     -27.031 -13.562  20.227  0.00  0.00    +0.160 C 
ATOM     13  O   UNL     1     -26.014 -13.089  19.649  0.00  0.00    -0.292 OA
ENDBRANCH   5  12
ENDBRANCH   1   8
BRANCH   2  14
ATOM     14  C   UNL     1     -33.951 -11.658  16.564  0.00  0.00    +0.115 C 
BRANCH  14  15
ATOM     15  C   UNL     1     -33.280 -10.851  15.432  0.00  0.00    +0.136 C 
BRANCH  15  16
ATOM     16  C   UNL     1     -33.016 -11.710  14.208  0.00  0.00    -0.033 A 
ATOM     17  C   UNL     1     -31.802 -12.411  14.060  0.00  0.00    +0.004 A 
ATOM     18  C   UNL     1     -31.598 -13.246  12.959  0.00  0.00    +0.000 A 
ATOM     19  C   UNL     1     -32.600 -13.395  11.997  0.00  0.00    +0.000 A 
ATOM     20  C   UNL     1     -33.807 -12.707  12.134  0.00  0.00    +0.000 A 
ATOM     21  C   UNL     1     -34.016 -11.868  13.231  0.00  0.00    +0.004 A 
ENDBRANCH  15  16
BRANCH  15  22
ATOM     22  C   UNL     1     -32.003 -10.204  15.902  0.00  0.00    +0.313 C 
ATOM     23  O   UNL     1     -30.950 -10.334  15.222  0.00  0.00    -0.250 OA
BRANCH  22  24
ATOM     24  O   UNL     1     -31.965  -9.504  17.105  0.00  0.00    -0.480 OA
ATOM     25  H   UNL     1     -32.115  -9.978  17.988  0.00  0.00    +0.295 HD
ENDBRANCH  22  24
ENDBRANCH  15  22
ENDBRANCH  14  15
ENDBRANCH   2  14
TORSDOF 7
ENDMDL
MODEL 7
REMARK VINA RESULT:    -4.587      2.287      3.644
REMARK INTER + INTRA:          -7.372
REMARK INTER:                  -5.994
REMARK INTRA:                  -1.378
REMARK UNBOUND:                -1.042
REMARK  Name = 
REMARK  8 active torsions:
REMARK  status: ('A' for Active; 'I' for Inactive)
REMARK    1  A    between atoms: C_1  and  C_2
REMARK    2  A    between atoms: C_2  and  C_4
REMARK    3  A    between atoms: C_7  and  N_10
REMARK    4  A    between atoms: C_11  and  C_13
REMARK    5  A    between atoms: C_13  and  C_14
REMARK    6  A    between atoms: C_14  and  C_15
REMARK    7  A    between atoms: C_14  and  C_18
REMARK    8  A    between atoms: C_15  and  O_17
REMARK                            x       y       z     vdW  Elec       q    Type
REMARK                         _______ _______ _______ _____ _____    ______ ____
ROOT
ATOM      1  N   UNL     1     -31.379 -14.143  15.563  0.00  0.00    -0.285 N 
ATOM      2  C   UNL     1     -31.044 -13.614  14.271  0.00  0.00    +0.218 C 
ATOM      3  O   UNL     1     -29.876 -13.203  14.031  0.00  0.00    -0.275 OA
ATOM      4  H   UNL     1     -32.178 -14.815  15.622  0.00  0.00    +0.155 HD
ENDROOT
BRANCH   1   8
ATOM      5  C   UNL     1     -29.433 -12.988  19.178  0.00  0.00    +0.017 A 
ATOM      6  C   UNL     1     -30.827 -13.184  19.133  0.00  0.00    +0.013 A 
ATOM      7  C   UNL     1     -31.452 -13.571  17.943  0.00  0.00    +0.024 A 
ATOM      8  C   UNL     1     -30.702 -13.786  16.780  0.00  0.00    +0.033 A 
ATOM      9  C   UNL     1     -29.314 -13.575  16.815  0.00  0.00    +0.024 A 
ATOM     10  C   UNL     1     -28.687 -13.185  18.001  0.00  0.00    +0.013 A 
BRANCH   5  12
ATOM     11  C   UNL     1     -28.049 -13.558  21.317  0.00  0.00    +0.091 C 
ATOM     12  C   UNL     1     -28.750 -12.572  20.433  0.00  0.00    +0.160 C 
ATOM     13  O   UNL     1     -28.755 -11.358  20.775  0.00  0.00    -0.292 OA
ENDBRANCH   5  12
ENDBRANCH   1   8
BRANCH   2  14
ATOM     14  C   UNL     1     -32.098 -13.514  13.207  0.00  0.00    +0.115 C 
BRANCH  14  15
ATOM     15  C   UNL     1     -32.671 -12.083  13.129  0.00  0.00    +0.136 C 
BRANCH  15  16
ATOM     16  C   UNL     1     -32.877 -11.482  14.507  0.00  0.00    -0.033 A 
ATOM     17  C   UNL     1     -31.957 -10.558  15.042  0.00  0.00    +0.004 A 
ATOM     18  C   UNL     1     -32.192  -9.966  16.286  0.00  0.00    +0.000 A 
ATOM     19  C   UNL     1     -33.344 -10.284  17.008  0.00  0.00    +0.000 A 
ATOM     20  C   UNL     1     -34.263 -11.198  16.487  0.00  0.00    +0.000 A 
ATOM     21  C   UNL     1     -34.033 -11.795  15.246  0.00  0.00    +0.004 A 
ENDBRANCH  15  16
BRANCH  15  22
ATOM     22  C   UNL     1     -33.958 -12.050  12.347  0.00  0.00    +0.313 C 
ATOM     23  O   UNL     1     -34.412 -10.948  11.938  0.00  0.00    -0.250 OA
BRANCH  22  24
ATOM     24  O   UNL     1     -34.676 -13.220  12.113  0.00  0.00    -0.480 OA
ATOM     25  H   UNL     1     -34.299 -14.123  12.376  0.00  0.00    +0.295 HD
ENDBRANCH  22  24
ENDBRANCH  15  22
ENDBRANCH  14  15
ENDBRANCH   2  14
TORSDOF 7
ENDMDL
