MODEL 1
REMARK VINA RESULT:    -3.761      0.000      0.000
REMARK INTER + INTRA:          -5.277
REMARK INTER:                  -4.640
REMARK INTRA:                  -0.637
REMARK UNBOUND:                -0.637
REMARK  Name = 
REMARK  6 active torsions:
REMARK  status: ('A' for Active; 'I' for Inactive)
REMARK    1  A    between atoms: C_1  and  C_2
REMARK    2  A    between atoms: C_2  and  C_3
REMARK    3  A    between atoms: C_3  and  C_4
REMARK    4  A    between atoms: C_3  and  N_6
REMARK    5  A    between atoms: C_4  and  C_5
REMARK    6  A    between atoms: C_10  and  N_14
REMARK                            x       y       z     vdW  Elec       q    Type
REMARK                         _______ _______ _______ _____ _____    ______ ____
ROOT
ATOM      1  N   UNL     1     -31.236 -13.109  20.240  0.00  0.00    -0.311 N 
ATOM      2  C   UNL     1     -29.803 -13.124  20.226  0.00  0.00    +0.217 A 
ATOM      3  N   UNL     1     -29.108 -12.304  19.395  0.00  0.00    -0.221 NA
ATOM      4  C   UNL     1     -27.752 -12.310  19.375  0.00  0.00    +0.150 A 
ATOM      5  C   UNL     1     -27.035 -13.161  20.226  0.00  0.00    +0.184 A 
ATOM      6  C   UNL     1     -27.773 -14.026  21.064  0.00  0.00    +0.152 A 
ATOM      7  N   UNL     1     -27.135 -15.000  21.896  0.00  0.00    -0.341 N 
ATOM      8  N   UNL     1     -29.132 -13.975  21.044  0.00  0.00    -0.198 NA
ATOM      9  H   UNL     1     -31.725 -13.743  20.912  0.00  0.00    +0.149 HD
ATOM     10  H   UNL     1     -27.707 -15.568  22.559  0.00  0.00    +0.144 HD
ATOM     11  H   UNL     1     -26.130 -15.254  21.784  0.00  0.00    +0.144 HD
ENDROOT
BRANCH   5  12
ATOM     12  N   UNL     1     -25.599 -13.109  20.242  0.00  0.00    +0.061 N 
ATOM     13  O   UNL     1     -24.938 -12.201  19.447  0.00  0.00    -0.126 OA
ATOM     14  O   UNL     1     -24.956 -13.723  21.118  0.00  0.00    -0.126 OA
ENDBRANCH   5  12
BRANCH   1  15
ATOM     15  C   UNL     1     -32.022 -12.217  19.377  0.00  0.00    +0.073 C 
BRANCH  15  17
ATOM     16  C   UNL     1     -31.794 -12.459  16.839  0.00  0.00    +0.006 C 
ATOM     17  C   UNL     1     -32.472 -12.985  18.104  0.00  0.00    +0.019 C 
ENDBRANCH  15  17
BRANCH  15  18
ATOM     18  C   UNL     1     -33.221 -11.656  20.177  0.00  0.00    +0.019 C 
ATOM     19  C   UNL     1     -33.490 -10.178  19.899  0.00  0.00    +0.006 C 
ENDBRANCH  15  18
ENDBRANCH   1  15
TORSDOF 4
ENDMDL
MODEL 2
REMARK VINA RESULT:    -3.573      3.413      4.617
REMARK INTER + INTRA:          -5.045
REMARK INTER:                  -4.435
REMARK INTRA:                  -0.610
REMARK UNBOUND:                -0.637
REMARK  Name = 
REMARK  6 active torsions:
REMARK  status: ('A' for Active; 'I' for Inactive)
REMARK    1  A    between atoms: C_1  and  C_2
REMARK    2  A    between atoms: C_2  and  C_3
REMARK    3  A    between atoms: C_3  and  C_4
REMARK    4  A    between atoms: C_3  and  N_6
REMARK    5  A    between atoms: C_4  and  C_5
REMARK    6  A    between atoms: C_10  and  N_14
REMARK                            x       y       z     vdW  Elec       q    Type
REMARK                         _______ _______ _______ _____ _____    ______ ____
ROOT
ATOM      1  N   UNL     1     -31.724 -12.957  14.892  0.00  0.00    -0.311 N 
ATOM      2  C   UNL     1     -30.935 -12.511  16.002  0.00  0.00    +0.217 A 
ATOM      3  N   UNL     1     -30.674 -11.190  16.181  0.00  0.00    -0.221 NA
ATOM      4  C   UNL     1     -29.928 -10.757  17.228  0.00  0.00    +0.150 A 
ATOM      5  C   UNL     1     -29.419 -11.671  18.160  0.00  0.00    +0.184 A 
ATOM      6  C   UNL     1     -29.676 -13.043  17.943  0.00  0.00    +0.152 A 
ATOM      7  N   UNL     1     -29.117 -14.059  18.781  0.00  0.00    -0.341 N 
ATOM      8  N   UNL     1     -30.432 -13.420  16.877  0.00  0.00    -0.198 NA
ATOM      9  H   UNL     1     -31.916 -13.982  14.808  0.00  0.00    +0.149 HD
ATOM     10  H   UNL     1     -29.392 -15.056  18.638  0.00  0.00    +0.144 HD
ATOM     11  H   UNL     1     -28.349 -13.862  19.457  0.00  0.00    +0.144 HD
ENDROOT
BRANCH   5  12
ATOM     12  N   UNL     1     -28.687 -11.193  19.300  0.00  0.00    +0.061 N 
ATOM     13  O   UNL     1     -29.329 -10.448  20.263  0.00  0.00    -0.126 OA
ATOM     14  O   UNL     1     -27.538 -11.622  19.537  0.00  0.00    -0.126 OA
ENDBRANCH   5  12
BRANCH   1  15
ATOM     15  C   UNL     1     -32.293 -12.029  13.906  0.00  0.00    +0.073 C 
BRANCH  15  17
ATOM     16  C   UNL     1     -33.292 -13.324  11.938  0.00  0.00    +0.006 C 
ATOM     17  C   UNL     1     -32.067 -12.584  12.473  0.00  0.00    +0.019 C 
ENDBRANCH  15  17
BRANCH  15  18
ATOM     18  C   UNL     1     -33.791 -11.805  14.217  0.00  0.00    +0.019 C 
ATOM     19  C   UNL     1     -34.156 -10.332  14.390  0.00  0.00    +0.006 C 
ENDBRANCH  15  18
ENDBRANCH   1  15
TORSDOF 4
ENDMDL
MODEL 3
REMARK VINA RESULT:    -3.549      1.826      2.319
REMARK INTER + INTRA:          -5.016
REMARK INTER:                  -4.346
REMARK INTRA:                  -0.670
REMARK UNBOUND:                -0.637
REMARK  Name = 
REMARK  6 active torsions:
REMARK  status: ('A' for Active; 'I' for Inactive)
REMARK    1  A    between atoms: C_1  and  C_2
REMARK    2  A    between atoms: C_2  and  C_3
REMARK    3  A    between atoms: C_3  and  C_4
REMARK    4  A    between atoms: C_3  and  N_6
REMARK    5  A    between atoms: C_4  and  C_5
REMARK    6  A    between atoms: C_10  and  N_14
REMARK                            x       y       z     vdW  Elec       q    Type
REMARK                         _______ _______ _______ _____ _____    ______ ____
ROOT
ATOM      1  N   UNL     1     -30.657 -11.893  17.776  0.00  0.00    -0.311 N 
ATOM      2  C   UNL     1     -29.470 -12.273  18.485  0.00  0.00    +0.217 A 
ATOM      3  N   UNL     1     -28.246 -11.868  18.057  0.00  0.00    -0.221 NA
ATOM      4  C   UNL     1     -27.118 -12.222  18.720  0.00  0.00    +0.150 A 
ATOM      5  C   UNL     1     -27.194 -13.008  19.878  0.00  0.00    +0.184 A 
ATOM      6  C   UNL     1     -28.472 -13.443  20.294  0.00  0.00    +0.152 A 
ATOM      7  N   UNL     1     -28.645 -14.329  21.403  0.00  0.00    -0.341 N 
ATOM      8  N   UNL     1     -29.570 -13.056  19.591  0.00  0.00    -0.198 NA
ATOM      9  H   UNL     1     -31.577 -12.211  18.157  0.00  0.00    +0.149 HD
ATOM     10  H   UNL     1     -29.608 -14.567  21.730  0.00  0.00    +0.144 HD
ATOM     11  H   UNL     1     -27.848 -14.848  21.830  0.00  0.00    +0.144 HD
ENDROOT
BRANCH   5  12
ATOM     12  N   UNL     1     -25.997 -13.319  20.608  0.00  0.00    +0.061 N 
ATOM     13  O   UNL     1     -26.062 -13.563  21.960  0.00  0.00    -0.126 OA
ATOM     14  O   UNL     1     -24.938 -13.581  20.000  0.00  0.00    -0.126 OA
ENDBRANCH   5  12
BRANCH   1  15
ATOM     15  C   UNL     1     -30.619 -11.053  16.572  0.00  0.00    +0.073 C 
BRANCH  15  17
ATOM     16  C   UNL     1     -31.181 -12.826  14.813  0.00  0.00    +0.006 C 
ATOM     17  C   UNL     1     -31.660 -11.570  15.542  0.00  0.00    +0.019 C 
ENDBRANCH  15  17
BRANCH  15  18
ATOM     18  C   UNL     1     -30.870  -9.579  16.967  0.00  0.00    +0.019 C 
ATOM     19  C   UNL     1     -32.122  -9.391  17.822  0.00  0.00    +0.006 C 
ENDBRANCH  15  18
ENDBRANCH   1  15
TORSDOF 4
ENDMDL
MODEL 4
REMARK VINA RESULT:    -3.519      3.576      5.093
REMARK INTER + INTRA:          -4.979
REMARK INTER:                  -4.330
REMARK INTRA:                  -0.650
REMARK UNBOUND:                -0.637
REMARK  Name = 
REMARK  6 active torsions:
REMARK  status: ('A' for Active; 'I' for Inactive)
REMARK    1  A    between atoms: C_1  and  C_2
REMARK    2  A    between atoms: C_2  and  C_3
REMARK    3  A    between atoms: C_3  and  C_4
REMARK    4  A    between atoms: C_3  and  N_6
REMARK    5  A    between atoms: C_4  and  C_5
REMARK    6  A    between atoms: C_10  and  N_14
REMARK                            x       y       z     vdW  Elec       q    Type
REMARK                         _______ _______ _______ _____ _____    ______ ____
ROOT
ATOM      1  N   UNL     1     -31.031 -14.079  15.297  0.00  0.00    -0.311 N 
ATOM      2  C   UNL     1     -30.680 -13.360  16.487  0.00  0.00    +0.217 A 
ATOM      3  N   UNL     1     -30.115 -12.127  16.410  0.00  0.00    -0.221 NA
ATOM      4  C   UNL     1     -29.779 -11.438  17.529  0.00  0.00    +0.150 A 
ATOM      5  C   UNL     1     -30.023 -11.984  18.797  0.00  0.00    +0.184 A 
ATOM      6  C   UNL     1     -30.586 -13.278  18.857  0.00  0.00    +0.152 A 
ATOM      7  N   UNL     1     -30.781 -13.961  20.099  0.00  0.00    -0.341 N 
ATOM      8  N   UNL     1     -30.904 -13.922  17.702  0.00  0.00    -0.198 NA
ATOM      9  H   UNL     1     -31.483 -15.015  15.407  0.00  0.00    +0.149 HD
ATOM     10  H   UNL     1     -31.270 -14.883  20.111  0.00  0.00    +0.144 HD
ATOM     11  H   UNL     1     -30.345 -13.633  20.988  0.00  0.00    +0.144 HD
ENDROOT
BRANCH   5  12
ATOM     12  N   UNL     1     -29.725 -11.216  19.973  0.00  0.00    +0.061 N 
ATOM     13  O   UNL     1     -29.276 -11.848  21.110  0.00  0.00    -0.126 OA
ATOM     14  O   UNL     1     -29.661  -9.970  19.913  0.00  0.00    -0.126 OA
ENDBRANCH   5  12
BRANCH   1  15
ATOM     15  C   UNL     1     -30.811 -13.531  13.952  0.00  0.00    +0.073 C 
BRANCH  15  17
ATOM     16  C   UNL     1     -28.634 -14.642  13.192  0.00  0.00    +0.006 C 
ATOM     17  C   UNL     1     -30.156 -14.612  13.049  0.00  0.00    +0.019 C 
ENDBRANCH  15  17
BRANCH  15  18
ATOM     18  C   UNL     1     -32.155 -13.026  13.378  0.00  0.00    +0.019 C 
ATOM     19  C   UNL     1     -32.399 -13.473  11.938  0.00  0.00    +0.006 C 
ENDBRANCH  15  18
ENDBRANCH   1  15
TORSDOF 4
ENDMDL
MODEL 5
REMARK VINA RESULT:    -3.507      2.046      3.344
REMARK INTER + INTRA:          -4.964
REMARK INTER:                  -4.401
REMARK INTRA:                  -0.563
REMARK UNBOUND:                -0.637
REMARK  Name = 
REMARK  6 active torsions:
REMARK  status: ('A' for Active; 'I' for Inactive)
REMARK    1  A    between atoms: C_1  and  C_2
REMARK    2  A    between atoms: C_2  and  C_3
REMARK    3  A    between atoms: C_3  and  C_4
REMARK    4  A    between atoms: C_3  and  N_6
REMARK    5  A    between atoms: C_4  and  C_5
REMARK    6  A    between atoms: C_10  and  N_14
REMARK                            x       y       z     vdW  Elec       q    Type
REMARK                         _______ _______ _______ _____ _____    ______ ____
ROOT
ATOM      1  N   UNL     1     -29.114 -10.571  17.733  0.00  0.00    -0.311 N 
ATOM      2  C   UNL     1     -28.611 -11.486  18.715  0.00  0.00    +0.217 A 
ATOM      3  N   UNL     1     -29.456 -12.114  19.575  0.00  0.00    -0.221 NA
ATOM      4  C   UNL     1     -28.990 -12.982  20.508  0.00  0.00    +0.150 A 
ATOM      5  C   UNL     1     -27.619 -13.259  20.596  0.00  0.00    +0.184 A 
ATOM      6  C   UNL     1     -26.753 -12.577  19.713  0.00  0.00    +0.152 A 
ATOM      7  N   UNL     1     -25.331 -12.716  19.790  0.00  0.00    -0.341 N 
ATOM      8  N   UNL     1     -27.276 -11.719  18.796  0.00  0.00    -0.198 NA
ATOM      9  H   UNL     1     -28.428 -10.129  17.080  0.00  0.00    +0.149 HD
ATOM     10  H   UNL     1     -24.727 -12.257  19.072  0.00  0.00    +0.144 HD
ATOM     11  H   UNL     1     -24.860 -13.159  20.607  0.00  0.00    +0.144 HD
ENDROOT
BRANCH   5  12
ATOM     12  N   UNL     1     -27.148 -14.230  21.544  0.00  0.00    +0.061 N 
ATOM     13  O   UNL     1     -25.878 -14.121  22.062  0.00  0.00    -0.126 OA
ATOM     14  O   UNL     1     -27.943 -15.041  22.062  0.00  0.00    -0.126 OA
ENDBRANCH   5  12
BRANCH   1  15
ATOM     15  C   UNL     1     -30.545 -10.271  17.596  0.00  0.00    +0.073 C 
BRANCH  15  17
ATOM     16  C   UNL     1     -32.453  -8.898  18.610  0.00  0.00    +0.006 C 
ATOM     17  C   UNL     1     -30.950  -9.178  18.622  0.00  0.00    +0.019 C 
ENDBRANCH  15  17
BRANCH  15  18
ATOM     18  C   UNL     1     -30.842  -9.845  16.139  0.00  0.00    +0.019 C 
ATOM     19  C   UNL     1     -31.730 -10.839  15.392  0.00  0.00    +0.006 C 
ENDBRANCH  15  18
ENDBRANCH   1  15
TORSDOF 4
ENDMDL
MODEL 6
REMARK VINA RESULT:    -3.505      3.476      5.051
REMARK INTER + INTRA:          -4.962
REMARK INTER:                  -4.414
REMARK INTRA:                  -0.548
REMARK UNBOUND:                -0.637
REMARK  Name = 
REMARK  6 active torsions:
REMARK  status: ('A' for Active; 'I' for Inactive)
REMARK    1  A    between atoms: C_1  and  C_2
REMARK    2  A    between atoms: C_2  and  C_3
REMARK    3  A    between atoms: C_3  and  C_4
REMARK    4  A    between atoms: C_3  and  N_6
REMARK    5  A    between atoms: C_4  and  C_5
REMARK    6  A    between atoms: C_10  and  N_14
REMARK                            x       y       z     vdW  Elec       q    Type
REMARK                         _______ _______ _______ _____ _____    ______ ____
ROOT
ATOM      1  N   UNL     1     -29.235 -13.914  15.330  0.00  0.00    -0.311 N 
ATOM      2  C   UNL     1     -29.369 -13.650  16.733  0.00  0.00    +0.217 A 
ATOM      3  N   UNL     1     -30.564 -13.813  17.358  0.00  0.00    -0.221 NA
ATOM      4  C   UNL     1     -30.701 -13.566  18.685  0.00  0.00    +0.150 A 
ATOM      5  C   UNL     1     -29.601 -13.146  19.444  0.00  0.00    +0.184 A 
ATOM      6  C   UNL     1     -28.374 -12.955  18.773  0.00  0.00    +0.152 A 
ATOM      7  N   UNL     1     -27.220 -12.434  19.439  0.00  0.00    -0.341 N 
ATOM      8  N   UNL     1     -28.293 -13.220  17.441  0.00  0.00    -0.198 NA
ATOM      9  H   UNL     1     -28.291 -13.794  14.898  0.00  0.00    +0.149 HD
ATOM     10  H   UNL     1     -26.310 -12.379  18.931  0.00  0.00    +0.144 HD
ATOM     11  H   UNL     1     -27.275 -11.990  20.381  0.00  0.00    +0.144 HD
ENDROOT
BRANCH   5  12
ATOM     12  N   UNL     1     -29.745 -12.953  20.861  0.00  0.00    +0.061 N 
ATOM     13  O   UNL     1     -28.701 -13.255  21.704  0.00  0.00    -0.126 OA
ATOM     14  O   UNL     1     -30.720 -12.318  21.315  0.00  0.00    -0.126 OA
ENDBRANCH   5  12
BRANCH   1  15
ATOM     15  C   UNL     1     -30.359 -14.376  14.505  0.00  0.00    +0.073 C 
BRANCH  15  17
ATOM     16  C   UNL     1     -31.758 -13.191  12.718  0.00  0.00    +0.006 C 
ATOM     17  C   UNL     1     -31.290 -13.177  14.174  0.00  0.00    +0.019 C 
ENDBRANCH  15  17
BRANCH  15  18
ATOM     18  C   UNL     1     -29.812 -15.062  13.232  0.00  0.00    +0.019 C 
ATOM     19  C   UNL     1     -28.286 -15.062  13.158  0.00  0.00    +0.006 C 
ENDBRANCH  15  18
ENDBRANCH   1  15
TORSDOF 4
ENDMDL
MODEL 7
REMARK VINA RESULT:    -3.454      5.005      6.731
REMARK INTER + INTRA:          -4.899
REMARK INTER:                  -4.673
REMARK INTRA:                  -0.226
REMARK UNBOUND:                -0.637
REMARK  Name = 
REMARK  6 active torsions:
REMARK  status: ('A' for Active; 'I' for Inactive)
REMARK    1  A    between atoms: C_1  and  C_2
REMARK    2  A    between atoms: C_2  and  C_3
REMARK    3  A    between atoms: C_3  and  C_4
REMARK    4  A    between atoms: C_3  and  N_6
REMARK    5  A    between atoms: C_4  and  C_5
REMARK    6  A    between atoms: C_10  and  N_14
REMARK                            x       y       z     vdW  Elec       q    Type
REMARK                         _______ _______ _______ _____ _____    ______ ____
ROOT
ATOM      1  N   UNL     1     -32.113 -11.849  13.988  0.00  0.00    -0.311 N 
ATOM      2  C   UNL     1     -31.775 -11.115  15.172  0.00  0.00    +0.217 A 
ATOM      3  N   UNL     1     -30.660 -11.423  15.884  0.00  0.00    -0.221 NA
ATOM      4  C   UNL     1     -30.331 -10.736  17.006  0.00  0.00    +0.150 A 
ATOM      5  C   UNL     1     -31.136  -9.677  17.449  0.00  0.00    +0.184 A 
ATOM      6  C   UNL     1     -32.305  -9.388  16.712  0.00  0.00    +0.152 A 
ATOM      7  N   UNL     1     -33.242  -8.394  17.138  0.00  0.00    -0.341 N 
ATOM      8  N   UNL     1     -32.585 -10.110  15.594  0.00  0.00    -0.198 NA
ATOM      9  H   UNL     1     -32.969 -11.561  13.462  0.00  0.00    +0.149 HD
ATOM     10  H   UNL     1     -34.054  -8.154  16.529  0.00  0.00    +0.144 HD
ATOM     11  H   UNL     1     -33.215  -7.979  18.094  0.00  0.00    +0.144 HD
ENDROOT
BRANCH   5  12
ATOM     12  N   UNL     1     -30.740  -8.914  18.600  0.00  0.00    +0.061 N 
ATOM     13  O   UNL     1     -31.618  -8.017  19.164  0.00  0.00    -0.126 OA
ATOM     14  O   UNL     1     -29.697  -9.207  19.222  0.00  0.00    -0.126 OA
ENDBRANCH   5  12
BRANCH   1  15
ATOM     15  C   UNL     1     -31.284 -12.950  13.481  0.00  0.00    +0.073 C 
BRANCH  15  17
ATOM     16  C   UNL     1     -29.822 -14.783  14.508  0.00  0.00    +0.006 C 
ATOM     17  C   UNL     1     -31.165 -14.056  14.565  0.00  0.00    +0.019 C 
ENDBRANCH  15  17
BRANCH  15  18
ATOM     18  C   UNL     1     -31.892 -13.485  12.163  0.00  0.00    +0.019 C 
ATOM     19  C   UNL     1     -33.350 -13.073  11.964  0.00  0.00    +0.006 C 
ENDBRANCH  15  18
ENDBRANCH   1  15
TORSDOF 4
ENDMDL
MODEL 8
REMARK VINA RESULT:    -3.402      1.821      2.247
REMARK INTER + INTRA:          -4.834
REMARK INTER:                  -4.171
REMARK INTRA:                  -0.663
REMARK UNBOUND:                -0.637
REMARK  Name = 
REMARK  6 active torsions:
REMARK  status: ('A' for Active; 'I' for Inactive)
REMARK    1  A    between atoms: C_1  and  C_2
REMARK    2  A    between atoms: C_2  and  C_3
REMARK    3  A    between atoms: C_3  and  C_4
REMARK    4  A    between atoms: C_3  and  N_6
REMARK    5  A    between atoms: C_4  and  C_5
REMARK    6  A    between atoms: C_10  and  N_14
REMARK                            x       y       z     vdW  Elec       q    Type
REMARK                         _______ _______ _______ _____ _____    ______ ____
ROOT
ATOM      1  N   UNL     1     -32.303 -11.692  20.523  0.00  0.00    -0.311 N 
ATOM      2  C   UNL     1     -30.931 -11.798  20.120  0.00  0.00    +0.217 A 
ATOM      3  N   UNL     1     -30.293 -10.744  19.548  0.00  0.00    -0.221 NA
ATOM      4  C   UNL     1     -28.996 -10.834  19.163  0.00  0.00    +0.150 A 
ATOM      5  C   UNL     1     -28.279 -12.022  19.361  0.00  0.00    +0.184 A 
ATOM      6  C   UNL     1     -28.965 -13.116  19.931  0.00  0.00    +0.152 A 
ATOM      7  N   UNL     1     -28.351 -14.399  20.082  0.00  0.00    -0.341 N 
ATOM      8  N   UNL     1     -30.266 -12.969  20.300  0.00  0.00    -0.198 NA
ATOM      9  H   UNL     1     -32.744 -12.524  20.978  0.00  0.00    +0.149 HD
ATOM     10  H   UNL     1     -28.863 -15.162  20.578  0.00  0.00    +0.144 HD
ATOM     11  H   UNL     1     -27.455 -14.646  19.610  0.00  0.00    +0.144 HD
ENDROOT
BRANCH   5  12
ATOM     12  N   UNL     1     -26.887 -12.081  19.010  0.00  0.00    +0.061 N 
ATOM     13  O   UNL     1     -26.319 -11.060  18.282  0.00  0.00    -0.126 OA
ATOM     14  O   UNL     1     -26.140 -12.934  19.534  0.00  0.00    -0.126 OA
ENDBRANCH   5  12
BRANCH   1  15
ATOM     15  C   UNL     1     -33.081 -10.458  20.352  0.00  0.00    +0.073 C 
BRANCH  15  17
ATOM     16  C   UNL     1     -33.226  -9.305  18.071  0.00  0.00    +0.006 C 
ATOM     17  C   UNL     1     -33.741 -10.448  18.945  0.00  0.00    +0.019 C 
ENDBRANCH  15  17
BRANCH  15  18
ATOM     18  C   UNL     1     -34.123 -10.348  21.488  0.00  0.00    +0.019 C 
ATOM     19  C   UNL     1     -34.242  -8.936  22.059  0.00  0.00    +0.006 C 
ENDBRANCH  15  18
ENDBRANCH   1  15
TORSDOF 4
ENDMDL
