MODEL 1
REMARK VINA RESULT:    -4.786      0.000      0.000
REMARK INTER + INTRA:          -9.655
REMARK INTER:                  -7.024
REMARK INTRA:                  -2.631
REMARK UNBOUND:                -2.631
REMARK  Name = 
REMARK  8 active torsions:
REMARK  status: ('A' for Active; 'I' for Inactive)
REMARK    1  A    between atoms: C_2  and  C_4
REMARK    2  A    between atoms: C_7  and  O_10
REMARK    3  A    between atoms: O_10  and  C_11
REMARK    4  A    between atoms: C_11  and  C_12
REMARK    5  A    between atoms: N_14  and  C_15
REMARK    6  A    between atoms: C_15  and  C_16
REMARK    7  A    between atoms: C_16  and  C_17
REMARK    8  A    between atoms: C_17  and  C_18
REMARK                            x       y       z     vdW  Elec       q    Type
REMARK                         _______ _______ _______ _____ _____    ______ ____
ROOT
ATOM      1  C   UNL     1     -32.994  -8.756  18.330  0.00  0.00    +0.251 C 
ATOM      2  O   UNL     1     -34.075  -8.949  18.952  0.00  0.00    -0.272 OA
ATOM      3  N   UNL     1     -32.988  -8.650  16.901  0.00  0.00    -0.313 N 
ATOM      4  H   UNL     1     -32.073  -8.553  16.405  0.00  0.00    +0.149 HD
ENDROOT
BRANCH   1   5
ATOM      5  C   UNL     1     -31.725  -8.594  19.103  0.00  0.00    +0.324 C 
BRANCH   5   6
ATOM      6  O   UNL     1     -30.649  -9.131  18.344  0.00  0.00    -0.483 OA
BRANCH   6  10
ATOM      7  C   UNL     1     -28.179 -12.363  19.495  0.00  0.00    +0.037 A 
ATOM      8  C   UNL     1     -27.885 -11.584  18.359  0.00  0.00    +0.016 A 
ATOM      9  C   UNL     1     -28.719 -10.524  17.991  0.00  0.00    +0.046 A 
ATOM     10  C   UNL     1     -29.851 -10.209  18.755  0.00  0.00    +0.121 A 
ATOM     11  C   UNL     1     -30.144 -10.979  19.893  0.00  0.00    +0.046 A 
ATOM     12  C   UNL     1     -29.316 -12.045  20.257  0.00  0.00    +0.016 A 
BRANCH   7  14
ATOM     13  N   UNL     1     -27.833 -14.690  20.461  0.00  0.00    -0.325 N 
ATOM     14  C   UNL     1     -27.300 -13.483  19.913  0.00  0.00    +0.242 C 
ATOM     15  O   UNL     1     -26.048 -13.372  19.792  0.00  0.00    -0.270 OA
ATOM     16  H   UNL     1     -28.826 -14.759  20.773  0.00  0.00    +0.145 HD
ATOM     17  H   UNL     1     -27.196 -15.489  20.678  0.00  0.00    +0.145 HD
ENDBRANCH   7  14
ENDBRANCH   6  10
ENDBRANCH   5   6
ENDBRANCH   1   5
BRANCH   3  18
ATOM     18  C   UNL     1     -34.207  -8.741  16.101  0.00  0.00    +0.104 C 
BRANCH  18  19
ATOM     19  C   UNL     1     -34.208 -10.005  15.224  0.00  0.00    +0.023 C 
BRANCH  19  20
ATOM     20  C   UNL     1     -34.308 -11.309  16.033  0.00  0.00    +0.036 C 
BRANCH  20  21
ATOM     21  C   UNL     1     -33.005 -12.066  16.053  0.00  0.00    -0.047 A 
ATOM     22  C   UNL     1     -32.120 -11.985  14.966  0.00  0.00    +0.005 A 
ATOM     23  C   UNL     1     -30.900 -12.670  14.998  0.00  0.00    +0.020 A 
ATOM     24  C   UNL     1     -30.553 -13.437  16.117  0.00  0.00    +0.041 A 
ATOM     25 CL   UNL     1     -29.019 -14.284  16.161  0.00  0.00    -0.084 Cl
ATOM     26  C   UNL     1     -31.429 -13.521  17.201  0.00  0.00    +0.020 A 
ATOM     27  C   UNL     1     -32.651 -12.841  17.170  0.00  0.00    +0.005 A 
ENDBRANCH  20  21
ENDBRANCH  19  20
ENDBRANCH  18  19
ENDBRANCH   3  18
TORSDOF 8
ENDMDL
MODEL 2
REMARK VINA RESULT:    -4.650      2.572      5.598
REMARK INTER + INTRA:          -9.457
REMARK INTER:                  -6.494
REMARK INTRA:                  -2.963
REMARK UNBOUND:                -2.631
REMARK  Name = 
REMARK  8 active torsions:
REMARK  status: ('A' for Active; 'I' for Inactive)
REMARK    1  A    between atoms: C_2  and  C_4
REMARK    2  A    between atoms: C_7  and  O_10
REMARK    3  A    between atoms: O_10  and  C_11
REMARK    4  A    between atoms: C_11  and  C_12
REMARK    5  A    between atoms: N_14  and  C_15
REMARK    6  A    between atoms: C_15  and  C_16
REMARK    7  A    between atoms: C_16  and  C_17
REMARK    8  A    between atoms: C_17  and  C_18
REMARK                            x       y       z     vdW  Elec       q    Type
REMARK                         _______ _______ _______ _____ _____    ______ ____
ROOT
ATOM      1  C   UNL     1     -30.401  -9.750  19.057  0.00  0.00    +0.251 C 
ATOM      2  O   UNL     1     -29.196  -9.657  18.690  0.00  0.00    -0.272 OA
ATOM      3  N   UNL     1     -30.752 -10.537  20.201  0.00  0.00    -0.313 N 
ATOM      4  H   UNL     1     -31.762 -10.649  20.447  0.00  0.00    +0.149 HD
ENDROOT
BRANCH   1   5
ATOM      5  C   UNL     1     -31.451  -8.994  18.310  0.00  0.00    +0.324 C 
BRANCH   5   6
ATOM      6  O   UNL     1     -32.530  -9.872  18.013  0.00  0.00    -0.483 OA
BRANCH   6  10
ATOM      7  C   UNL     1     -33.195 -11.815  14.318  0.00  0.00    +0.037 A 
ATOM      8  C   UNL     1     -34.144 -11.872  15.357  0.00  0.00    +0.016 A 
ATOM      9  C   UNL     1     -33.901 -11.229  16.575  0.00  0.00    +0.046 A 
ATOM     10  C   UNL     1     -32.719 -10.504  16.775  0.00  0.00    +0.121 A 
ATOM     11  C   UNL     1     -31.772 -10.439  15.739  0.00  0.00    +0.046 A 
ATOM     12  C   UNL     1     -32.010 -11.090  14.524  0.00  0.00    +0.016 A 
BRANCH   7  14
ATOM     13  N   UNL     1     -34.747 -12.555  12.444  0.00  0.00    -0.325 N 
ATOM     14  C   UNL     1     -33.439 -12.478  13.013  0.00  0.00    +0.242 C 
ATOM     15  O   UNL     1     -32.473 -12.996  12.387  0.00  0.00    -0.270 OA
ATOM     16  H   UNL     1     -35.601 -12.332  13.000  0.00  0.00    +0.145 HD
ATOM     17  H   UNL     1     -34.877 -12.962  11.491  0.00  0.00    +0.145 HD
ENDBRANCH   7  14
ENDBRANCH   6  10
ENDBRANCH   5   6
ENDBRANCH   1   5
BRANCH   3  18
ATOM     18  C   UNL     1     -29.758 -11.248  21.002  0.00  0.00    +0.104 C 
BRANCH  18  19
ATOM     19  C   UNL     1     -29.568 -12.692  20.506  0.00  0.00    +0.023 C 
BRANCH  19  20
ATOM     20  C   UNL     1     -30.811 -13.264  19.805  0.00  0.00    +0.036 C 
BRANCH  20  21
ATOM     21  C   UNL     1     -30.544 -13.604  18.362  0.00  0.00    -0.047 A 
ATOM     22  C   UNL     1     -31.544 -14.198  17.575  0.00  0.00    +0.005 A 
ATOM     23  C   UNL     1     -31.301 -14.490  16.228  0.00  0.00    +0.020 A 
ATOM     24  C   UNL     1     -30.060 -14.187  15.656  0.00  0.00    +0.041 A 
ATOM     25 CL   UNL     1     -29.761 -14.541  13.965  0.00  0.00    -0.084 Cl
ATOM     26  C   UNL     1     -29.061 -13.596  16.433  0.00  0.00    +0.020 A 
ATOM     27  C   UNL     1     -29.300 -13.306  17.780  0.00  0.00    +0.005 A 
ENDBRANCH  20  21
ENDBRANCH  19  20
ENDBRANCH  18  19
ENDBRANCH   3  18
TORSDOF 8
ENDMDL
MODEL 3
REMARK VINA RESULT:    -4.559      3.111      5.348
REMARK INTER + INTRA:          -9.322
REMARK INTER:                  -6.331
REMARK INTRA:                  -2.990
REMARK UNBOUND:                -2.631
REMARK  Name = 
REMARK  8 active torsions:
REMARK  status: ('A' for Active; 'I' for Inactive)
REMARK    1  A    between atoms: C_2  and  C_4
REMARK    2  A    between atoms: C_7  and  O_10
REMARK    3  A    between atoms: O_10  and  C_11
REMARK    4  A    between atoms: C_11  and  C_12
REMARK    5  A    between atoms: N_14  and  C_15
REMARK    6  A    between atoms: C_15  and  C_16
REMARK    7  A    between atoms: C_16  and  C_17
REMARK    8  A    between atoms: C_17  and  C_18
REMARK                            x       y       z     vdW  Elec       q    Type
REMARK                         _______ _______ _______ _____ _____    ______ ____
ROOT
ATOM      1  C   UNL     1     -33.002 -12.871  12.759  0.00  0.00    +0.251 C 
ATOM      2  O   UNL     1     -33.653 -13.746  12.124  0.00  0.00    -0.272 OA
ATOM      3  N   UNL     1     -31.590 -13.014  12.951  0.00  0.00    -0.313 N 
ATOM      4  H   UNL     1     -31.084 -12.309  13.533  0.00  0.00    +0.149 HD
ENDROOT
BRANCH   1   5
ATOM      5  C   UNL     1     -33.713 -11.661  13.273  0.00  0.00    +0.324 C 
BRANCH   5   6
ATOM      6  O   UNL     1     -33.877 -11.782  14.680  0.00  0.00    -0.483 OA
BRANCH   6  10
ATOM      7  C   UNL     1     -31.437  -9.969  17.617  0.00  0.00    +0.037 A 
ATOM      8  C   UNL     1     -32.723 -10.451  17.928  0.00  0.00    +0.016 A 
ATOM      9  C   UNL     1     -33.518 -11.040  16.940  0.00  0.00    +0.046 A 
ATOM     10  C   UNL     1     -33.041 -11.177  15.630  0.00  0.00    +0.121 A 
ATOM     11  C   UNL     1     -31.756 -10.704  15.316  0.00  0.00    +0.046 A 
ATOM     12  C   UNL     1     -30.965 -10.106  16.301  0.00  0.00    +0.016 A 
BRANCH   7  14
ATOM     13  N   UNL     1     -31.092  -8.434  19.614  0.00  0.00    -0.325 N 
ATOM     14  C   UNL     1     -30.571  -9.353  18.653  0.00  0.00    +0.242 C 
ATOM     15  O   UNL     1     -29.341  -9.637  18.687  0.00  0.00    -0.270 OA
ATOM     16  H   UNL     1     -32.038  -8.008  19.510  0.00  0.00    +0.145 HD
ATOM     17  H   UNL     1     -30.475  -8.072  20.376  0.00  0.00    +0.145 HD
ENDBRANCH   7  14
ENDBRANCH   6  10
ENDBRANCH   5   6
ENDBRANCH   1   5
BRANCH   3  18
ATOM     18  C   UNL     1     -30.835 -14.148  12.419  0.00  0.00    +0.104 C 
BRANCH  18  19
ATOM     19  C   UNL     1     -30.326 -15.060  13.549  0.00  0.00    +0.023 C 
BRANCH  19  20
ATOM     20  C   UNL     1     -29.218 -14.417  14.399  0.00  0.00    +0.036 C 
BRANCH  20  21
ATOM     21  C   UNL     1     -29.676 -14.128  15.805  0.00  0.00    -0.047 A 
ATOM     22  C   UNL     1     -28.821 -13.481  16.712  0.00  0.00    +0.005 A 
ATOM     23  C   UNL     1     -29.258 -13.192  18.009  0.00  0.00    +0.020 A 
ATOM     24  C   UNL     1     -30.553 -13.540  18.409  0.00  0.00    +0.041 A 
ATOM     25 CL   UNL     1     -31.104 -13.165  20.030  0.00  0.00    -0.084 Cl
ATOM     26  C   UNL     1     -31.409 -14.183  17.511  0.00  0.00    +0.020 A 
ATOM     27  C   UNL     1     -30.974 -14.478  16.215  0.00  0.00    +0.005 A 
ENDBRANCH  20  21
ENDBRANCH  19  20
ENDBRANCH  18  19
ENDBRANCH   3  18
TORSDOF 8
ENDMDL
MODEL 4
REMARK VINA RESULT:    -4.488      3.425      5.090
REMARK INTER + INTRA:          -9.218
REMARK INTER:                  -6.085
REMARK INTRA:                  -3.134
REMARK UNBOUND:                -2.631
REMARK  Name = 
REMARK  8 active torsions:
REMARK  status: ('A' for Active; 'I' for Inactive)
REMARK    1  A    between atoms: C_2  and  C_4
REMARK    2  A    between atoms: C_7  and  O_10
REMARK    3  A    between atoms: O_10  and  C_11
REMARK    4  A    between atoms: C_11  and  C_12
REMARK    5  A    between atoms: N_14  and  C_15
REMARK    6  A    between atoms: C_15  and  C_16
REMARK    7  A    between atoms: C_16  and  C_17
REMARK    8  A    between atoms: C_17  and  C_18
REMARK                            x       y       z     vdW  Elec       q    Type
REMARK                         _______ _______ _______ _____ _____    ______ ____
ROOT
ATOM      1  C   UNL     1     -29.859 -14.327  13.318  0.00  0.00    +0.251 C 
ATOM      2  O   UNL     1     -29.127 -13.939  12.365  0.00  0.00    -0.272 OA
ATOM      3  N   UNL     1     -31.274 -14.103  13.285  0.00  0.00    -0.313 N 
ATOM      4  H   UNL     1     -31.849 -14.376  14.113  0.00  0.00    +0.149 HD
ENDROOT
BRANCH   1   5
ATOM      5  C   UNL     1     -29.240 -15.062  14.462  0.00  0.00    +0.324 C 
BRANCH   5   6
ATOM      6  O   UNL     1     -28.708 -14.120  15.385  0.00  0.00    -0.483 OA
BRANCH   6  10
ATOM      7  C   UNL     1     -30.737 -12.957  18.906  0.00  0.00    +0.037 A 
ATOM      8  C   UNL     1     -31.340 -13.809  17.960  0.00  0.00    +0.016 A 
ATOM      9  C   UNL     1     -30.654 -14.176  16.798  0.00  0.00    +0.046 A 
ATOM     10  C   UNL     1     -29.351 -13.716  16.563  0.00  0.00    +0.121 A 
ATOM     11  C   UNL     1     -28.744 -12.870  17.507  0.00  0.00    +0.046 A 
ATOM     12  C   UNL     1     -29.432 -12.495  18.665  0.00  0.00    +0.016 A 
BRANCH   7  14
ATOM     13  N   UNL     1     -32.865 -12.460  20.207  0.00  0.00    -0.325 N 
ATOM     14  C   UNL     1     -31.441 -12.566  20.152  0.00  0.00    +0.242 C 
ATOM     15  O   UNL     1     -30.772 -12.312  21.193  0.00  0.00    -0.270 OA
ATOM     16  H   UNL     1     -33.448 -12.456  19.343  0.00  0.00    +0.145 HD
ATOM     17  H   UNL     1     -33.336 -12.255  21.116  0.00  0.00    +0.145 HD
ENDBRANCH   7  14
ENDBRANCH   6  10
ENDBRANCH   5   6
ENDBRANCH   1   5
BRANCH   3  18
ATOM     18  C   UNL     1     -31.938 -13.441  12.163  0.00  0.00    +0.104 C 
BRANCH  18  19
ATOM     19  C   UNL     1     -32.640 -12.148  12.612  0.00  0.00    +0.023 C 
BRANCH  19  20
ATOM     20  C   UNL     1     -33.464 -12.316  13.900  0.00  0.00    +0.036 C 
BRANCH  20  21
ATOM     21  C   UNL     1     -32.950 -11.451  15.021  0.00  0.00    -0.047 A 
ATOM     22  C   UNL     1     -33.748 -11.202  16.149  0.00  0.00    +0.005 A 
ATOM     23  C   UNL     1     -33.258 -10.419  17.200  0.00  0.00    +0.020 A 
ATOM     24  C   UNL     1     -31.968  -9.881  17.134  0.00  0.00    +0.041 A 
ATOM     25 CL   UNL     1     -31.351  -8.910  18.457  0.00  0.00    -0.084 Cl
ATOM     26  C   UNL     1     -31.168 -10.125  16.015  0.00  0.00    +0.020 A 
ATOM     27  C   UNL     1     -31.656 -10.905  14.961  0.00  0.00    +0.005 A 
ENDBRANCH  20  21
ENDBRANCH  19  20
ENDBRANCH  18  19
ENDBRANCH   3  18
TORSDOF 8
ENDMDL
MODEL 5
REMARK VINA RESULT:    -4.297      2.241      4.379
REMARK INTER + INTRA:          -8.938
REMARK INTER:                  -5.623
REMARK INTRA:                  -3.314
REMARK UNBOUND:                -2.631
REMARK  Name = 
REMARK  8 active torsions:
REMARK  status: ('A' for Active; 'I' for Inactive)
REMARK    1  A    between atoms: C_2  and  C_4
REMARK    2  A    between atoms: C_7  and  O_10
REMARK    3  A    between atoms: O_10  and  C_11
REMARK    4  A    between atoms: C_11  and  C_12
REMARK    5  A    between atoms: N_14  and  C_15
REMARK    6  A    between atoms: C_15  and  C_16
REMARK    7  A    between atoms: C_16  and  C_17
REMARK    8  A    between atoms: C_17  and  C_18
REMARK                            x       y       z     vdW  Elec       q    Type
REMARK                         _______ _______ _______ _____ _____    ______ ____
ROOT
ATOM      1  C   UNL     1     -34.025  -9.414  18.232  0.00  0.00    +0.251 C 
ATOM      2  O   UNL     1     -33.504  -8.263  18.259  0.00  0.00    -0.272 OA
ATOM      3  N   UNL     1     -34.335 -10.099  19.451  0.00  0.00    -0.313 N 
ATOM      4  H   UNL     1     -34.706 -11.074  19.403  0.00  0.00    +0.149 HD
ENDROOT
BRANCH   1   5
ATOM      5  C   UNL     1     -34.356 -10.034  16.914  0.00  0.00    +0.324 C 
BRANCH   5   6
ATOM      6  O   UNL     1     -34.204 -11.445  17.015  0.00  0.00    -0.483 OA
BRANCH   6  10
ATOM      7  C   UNL     1     -30.571 -13.444  16.196  0.00  0.00    +0.037 A 
ATOM      8  C   UNL     1     -30.934 -12.271  15.505  0.00  0.00    +0.016 A 
ATOM      9  C   UNL     1     -32.144 -11.630  15.786  0.00  0.00    +0.046 A 
ATOM     10  C   UNL     1     -33.006 -12.132  16.769  0.00  0.00    +0.121 A 
ATOM     11  C   UNL     1     -32.645 -13.298  17.465  0.00  0.00    +0.046 A 
ATOM     12  C   UNL     1     -31.440 -13.946  17.178  0.00  0.00    +0.016 A 
BRANCH   7  14
ATOM     13  N   UNL     1     -29.145 -15.062  14.847  0.00  0.00    -0.325 N 
ATOM     14  C   UNL     1     -29.285 -14.133  15.924  0.00  0.00    +0.242 C 
ATOM     15  O   UNL     1     -28.287 -13.905  16.663  0.00  0.00    -0.270 OA
ATOM     16  H   UNL     1     -29.973 -15.442  14.340  0.00  0.00    +0.145 HD
ATOM     17  H   UNL     1     -28.210 -15.477  14.636  0.00  0.00    +0.145 HD
ENDBRANCH   7  14
ENDBRANCH   6  10
ENDBRANCH   5   6
ENDBRANCH   1   5
BRANCH   3  18
ATOM     18  C   UNL     1     -34.086  -9.513  20.767  0.00  0.00    +0.104 C 
BRANCH  18  19
ATOM     19  C   UNL     1     -32.734  -9.972  21.339  0.00  0.00    +0.023 C 
BRANCH  19  20
ATOM     20  C   UNL     1     -32.309 -11.367  20.852  0.00  0.00    +0.036 C 
BRANCH  20  21
ATOM     21  C   UNL     1     -30.954 -11.351  20.193  0.00  0.00    -0.047 A 
ATOM     22  C   UNL     1     -30.033 -12.382  20.439  0.00  0.00    +0.005 A 
ATOM     23  C   UNL     1     -28.785 -12.377  19.806  0.00  0.00    +0.020 A 
ATOM     24  C   UNL     1     -28.449 -11.347  18.920  0.00  0.00    +0.041 A 
ATOM     25 CL   UNL     1     -26.890 -11.349  18.118  0.00  0.00    -0.084 Cl
ATOM     26  C   UNL     1     -29.361 -10.319  18.671  0.00  0.00    +0.020 A 
ATOM     27  C   UNL     1     -30.608 -10.319  19.305  0.00  0.00    +0.005 A 
ENDBRANCH  20  21
ENDBRANCH  19  20
ENDBRANCH  18  19
ENDBRANCH   3  18
TORSDOF 8
ENDMDL
MODEL 6
REMARK VINA RESULT:    -4.287      3.184      4.850
REMARK INTER + INTRA:          -8.923
REMARK INTER:                  -6.272
REMARK INTRA:                  -2.651
REMARK UNBOUND:                -2.631
REMARK  Name = 
REMARK  8 active torsions:
REMARK  status: ('A' for Active; 'I' for Inactive)
REMARK    1  A    between atoms: C_2  and  C_4
REMARK    2  A    between atoms: C_7  and  O_10
REMARK    3  A    between atoms: O_10  and  C_11
REMARK    4  A    between atoms: C_11  and  C_12
REMARK    5  A    between atoms: N_14  and  C_15
REMARK    6  A    between atoms: C_15  and  C_16
REMARK    7  A    between atoms: C_16  and  C_17
REMARK    8  A    between atoms: C_17  and  C_18
REMARK                            x       y       z     vdW  Elec       q    Type
REMARK                         _______ _______ _______ _____ _____    ______ ____
ROOT
ATOM      1  C   UNL     1     -31.673 -13.059  12.621  0.00  0.00    +0.251 C 
ATOM      2  O   UNL     1     -31.502 -12.011  11.938  0.00  0.00    -0.272 OA
ATOM      3  N   UNL     1     -32.945 -13.334  13.221  0.00  0.00    -0.313 N 
ATOM      4  H   UNL     1     -33.043 -14.175  13.834  0.00  0.00    +0.149 HD
ENDROOT
BRANCH   1   5
ATOM      5  C   UNL     1     -30.547 -14.031  12.762  0.00  0.00    +0.324 C 
BRANCH   5   6
ATOM      6  O   UNL     1     -30.782 -14.850  13.901  0.00  0.00    -0.483 OA
BRANCH   6  10
ATOM      7  C   UNL     1     -30.088 -13.696  17.907  0.00  0.00    +0.037 A 
ATOM      8  C   UNL     1     -31.372 -14.070  17.464  0.00  0.00    +0.016 A 
ATOM      9  C   UNL     1     -31.581 -14.441  16.133  0.00  0.00    +0.046 A 
ATOM     10  C   UNL     1     -30.516 -14.463  15.222  0.00  0.00    +0.121 A 
ATOM     11  C   UNL     1     -29.233 -14.097  15.661  0.00  0.00    +0.046 A 
ATOM     12  C   UNL     1     -29.024 -13.716  16.991  0.00  0.00    +0.016 A 
BRANCH   7  14
ATOM     13  N   UNL     1     -30.693 -13.756  20.377  0.00  0.00    -0.325 N 
ATOM     14  C   UNL     1     -29.840 -13.312  19.320  0.00  0.00    +0.242 C 
ATOM     15  O   UNL     1     -28.858 -12.570  19.601  0.00  0.00    -0.270 OA
ATOM     16  H   UNL     1     -31.621 -14.192  20.187  0.00  0.00    +0.145 HD
ATOM     17  H   UNL     1     -30.452 -13.530  21.368  0.00  0.00    +0.145 HD
ENDBRANCH   7  14
ENDBRANCH   6  10
ENDBRANCH   5   6
ENDBRANCH   1   5
BRANCH   3  18
ATOM     18  C   UNL     1     -34.095 -12.446  13.066  0.00  0.00    +0.104 C 
BRANCH  18  19
ATOM     19  C   UNL     1     -34.400 -11.691  14.372  0.00  0.00    +0.023 C 
BRANCH  19  20
ATOM     20  C   UNL     1     -33.816 -10.269  14.404  0.00  0.00    +0.036 C 
BRANCH  20  21
ATOM     21  C   UNL     1     -32.853 -10.075  15.546  0.00  0.00    -0.047 A 
ATOM     22  C   UNL     1     -33.308  -9.595  16.785  0.00  0.00    +0.005 A 
ATOM     23  C   UNL     1     -32.416  -9.439  17.851  0.00  0.00    +0.020 A 
ATOM     24  C   UNL     1     -31.065  -9.766  17.691  0.00  0.00    +0.041 A 
ATOM     25 CL   UNL     1     -29.950  -9.583  19.031  0.00  0.00    -0.084 Cl
ATOM     26  C   UNL     1     -30.606 -10.245  16.461  0.00  0.00    +0.020 A 
ATOM     27  C   UNL     1     -31.495 -10.398  15.392  0.00  0.00    +0.005 A 
ENDBRANCH  20  21
ENDBRANCH  19  20
ENDBRANCH  18  19
ENDBRANCH   3  18
TORSDOF 8
ENDMDL
MODEL 7
REMARK VINA RESULT:    -4.160      2.617      3.498
REMARK INTER + INTRA:          -8.737
REMARK INTER:                  -6.731
REMARK INTRA:                  -2.006
REMARK UNBOUND:                -2.631
REMARK  Name = 
REMARK  8 active torsions:
REMARK  status: ('A' for Active; 'I' for Inactive)
REMARK    1  A    between atoms: C_2  and  C_4
REMARK    2  A    between atoms: C_7  and  O_10
REMARK    3  A    between atoms: O_10  and  C_11
REMARK    4  A    between atoms: C_11  and  C_12
REMARK    5  A    between atoms: N_14  and  C_15
REMARK    6  A    between atoms: C_15  and  C_16
REMARK    7  A    between atoms: C_16  and  C_17
REMARK    8  A    between atoms: C_17  and  C_18
REMARK                            x       y       z     vdW  Elec       q    Type
REMARK                         _______ _______ _______ _____ _____    ______ ____
ROOT
ATOM      1  C   UNL     1     -30.793  -9.032  20.377  0.00  0.00    +0.251 C 
ATOM      2  O   UNL     1     -30.049  -8.057  20.077  0.00  0.00    -0.272 OA
ATOM      3  N   UNL     1     -32.051  -9.216  19.717  0.00  0.00    -0.313 N 
ATOM      4  H   UNL     1     -32.676  -9.993  20.027  0.00  0.00    +0.149 HD
ENDROOT
BRANCH   1   5
ATOM      5  C   UNL     1     -30.327 -10.018  21.399  0.00  0.00    +0.324 C 
BRANCH   5   6
ATOM      6  O   UNL     1     -29.310 -10.831  20.827  0.00  0.00    -0.483 OA
BRANCH   6  10
ATOM      7  C   UNL     1     -29.836 -13.502  17.594  0.00  0.00    +0.037 A 
ATOM      8  C   UNL     1     -28.713 -12.655  17.669  0.00  0.00    +0.016 A 
ATOM      9  C   UNL     1     -28.562 -11.773  18.744  0.00  0.00    +0.046 A 
ATOM     10  C   UNL     1     -29.515 -11.730  19.770  0.00  0.00    +0.121 A 
ATOM     11  C   UNL     1     -30.633 -12.577  19.702  0.00  0.00    +0.046 A 
ATOM     12  C   UNL     1     -30.790 -13.452  18.623  0.00  0.00    +0.016 A 
BRANCH   7  14
ATOM     13  N   UNL     1     -28.889 -15.021  15.788  0.00  0.00    -0.325 N 
ATOM     14  C   UNL     1     -30.009 -14.456  16.470  0.00  0.00    +0.242 C 
ATOM     15  O   UNL     1     -31.172 -14.775  16.097  0.00  0.00    -0.270 OA
ATOM     16  H   UNL     1     -27.924 -14.645  15.911  0.00  0.00    +0.145 HD
ATOM     17  H   UNL     1     -29.040 -15.745  15.050  0.00  0.00    +0.145 HD
ENDBRANCH   7  14
ENDBRANCH   6  10
ENDBRANCH   5   6
ENDBRANCH   1   5
BRANCH   3  18
ATOM     18  C   UNL     1     -32.528  -8.314  18.670  0.00  0.00    +0.104 C 
BRANCH  18  19
ATOM     19  C   UNL     1     -33.002  -9.095  17.432  0.00  0.00    +0.023 C 
BRANCH  19  20
ATOM     20  C   UNL     1     -31.854  -9.757  16.652  0.00  0.00    +0.036 C 
BRANCH  20  21
ATOM     21  C   UNL     1     -32.353 -10.559  15.478  0.00  0.00    -0.047 A 
ATOM     22  C   UNL     1     -31.502 -11.466  14.825  0.00  0.00    +0.005 A 
ATOM     23  C   UNL     1     -31.975 -12.228  13.751  0.00  0.00    +0.020 A 
ATOM     24  C   UNL     1     -33.301 -12.095  13.325  0.00  0.00    +0.041 A 
ATOM     25 CL   UNL     1     -33.897 -13.060  11.987  0.00  0.00    -0.084 Cl
ATOM     26  C   UNL     1     -34.153 -11.195  13.970  0.00  0.00    +0.020 A 
ATOM     27  C   UNL     1     -33.682 -10.429  15.041  0.00  0.00    +0.005 A 
ENDBRANCH  20  21
ENDBRANCH  19  20
ENDBRANCH  18  19
ENDBRANCH   3  18
TORSDOF 8
ENDMDL
MODEL 8
REMARK VINA RESULT:    -4.158      2.499      5.516
REMARK INTER + INTRA:          -8.735
REMARK INTER:                  -5.504
REMARK INTRA:                  -3.230
REMARK UNBOUND:                -2.631
REMARK  Name = 
REMARK  8 active torsions:
REMARK  status: ('A' for Active; 'I' for Inactive)
REMARK    1  A    between atoms: C_2  and  C_4
REMARK    2  A    between atoms: C_7  and  O_10
REMARK    3  A    between atoms: O_10  and  C_11
REMARK    4  A    between atoms: C_11  and  C_12
REMARK    5  A    between atoms: N_14  and  C_15
REMARK    6  A    between atoms: C_15  and  C_16
REMARK    7  A    between atoms: C_16  and  C_17
REMARK    8  A    between atoms: C_17  and  C_18
REMARK                            x       y       z     vdW  Elec       q    Type
REMARK                         _______ _______ _______ _____ _____    ______ ____
ROOT
ATOM      1  C   UNL     1     -28.497 -13.144  18.424  0.00  0.00    +0.251 C 
ATOM      2  O   UNL     1     -27.571 -12.508  17.846  0.00  0.00    -0.272 OA
ATOM      3  N   UNL     1     -29.359 -14.009  17.677  0.00  0.00    -0.313 N 
ATOM      4  H   UNL     1     -30.157 -14.474  18.166  0.00  0.00    +0.149 HD
ENDROOT
BRANCH   1   5
ATOM      5  C   UNL     1     -28.655 -13.017  19.905  0.00  0.00    +0.324 C 
BRANCH   5   6
ATOM      6  O   UNL     1     -30.041 -12.972  20.220  0.00  0.00    -0.483 OA
BRANCH   6  10
ATOM      7  C   UNL     1     -32.601  -9.659  19.637  0.00  0.00    +0.037 A 
ATOM      8  C   UNL     1     -33.114 -10.951  19.858  0.00  0.00    +0.016 A 
ATOM      9  C   UNL     1     -32.250 -12.035  20.041  0.00  0.00    +0.046 A 
ATOM     10  C   UNL     1     -30.861 -11.851  20.024  0.00  0.00    +0.121 A 
ATOM     11  C   UNL     1     -30.345 -10.562  19.810  0.00  0.00    +0.046 A 
ATOM     12  C   UNL     1     -31.208  -9.479  19.617  0.00  0.00    +0.016 A 
BRANCH   7  14
ATOM     13  N   UNL     1     -34.793  -8.441  20.058  0.00  0.00    -0.325 N 
ATOM     14  C   UNL     1     -33.499  -8.491  19.454  0.00  0.00    +0.242 C 
ATOM     15  O   UNL     1     -33.122  -7.519  18.744  0.00  0.00    -0.270 OA
ATOM     16  H   UNL     1     -35.237  -9.287  20.478  0.00  0.00    +0.145 HD
ATOM     17  H   UNL     1     -35.374  -7.577  19.972  0.00  0.00    +0.145 HD
ENDBRANCH   7  14
ENDBRANCH   6  10
ENDBRANCH   5   6
ENDBRANCH   1   5
BRANCH   3  18
ATOM     18  C   UNL     1     -29.211 -14.214  16.237  0.00  0.00    +0.104 C 
BRANCH  18  19
ATOM     19  C   UNL     1     -30.491 -13.820  15.480  0.00  0.00    +0.023 C 
BRANCH  19  20
ATOM     20  C   UNL     1     -31.703 -13.608  16.402  0.00  0.00    +0.036 C 
BRANCH  20  21
ATOM     21  C   UNL     1     -32.329 -12.250  16.215  0.00  0.00    -0.047 A 
ATOM     22  C   UNL     1     -31.525 -11.121  15.998  0.00  0.00    +0.005 A 
ATOM     23  C   UNL     1     -32.110  -9.865  15.800  0.00  0.00    +0.020 A 
ATOM     24  C   UNL     1     -33.503  -9.729  15.813  0.00  0.00    +0.041 A 
ATOM     25 CL   UNL     1     -34.236  -8.158  15.552  0.00  0.00    -0.084 Cl
ATOM     26  C   UNL     1     -34.310 -10.849  16.028  0.00  0.00    +0.020 A 
ATOM     27  C   UNL     1     -33.727 -12.105  16.230  0.00  0.00    +0.005 A 
ENDBRANCH  20  21
ENDBRANCH  19  20
ENDBRANCH  18  19
ENDBRANCH   3  18
TORSDOF 8
ENDMDL
