MODEL 1
REMARK VINA RESULT:    -3.663      0.000      0.000
REMARK INTER + INTRA:          -6.908
REMARK INTER:                  -5.376
REMARK INTRA:                  -1.532
REMARK UNBOUND:                -1.532
REMARK  Name = 
REMARK  11 active torsions:
REMARK  status: ('A' for Active; 'I' for Inactive)
REMARK    1  A    between atoms: C_1  and  C_2
REMARK    2  A    between atoms: C_2  and  C_3
REMARK    3  A    between atoms: C_7  and  C_8
REMARK    4  A    between atoms: C_8  and  C_9
REMARK    5  A    between atoms: C_10  and  N_11
REMARK    6  A    between atoms: C_12  and  C_14
REMARK    7  A    between atoms: C_14  and  O_15
REMARK    8  A    between atoms: O_15  and  C_16
REMARK    9  A    between atoms: C_19  and  N_22
REMARK   10  A    between atoms: C_23  and  C_25
REMARK   11  A    between atoms: C_29  and  C_30
REMARK                            x       y       z     vdW  Elec       q    Type
REMARK                         _______ _______ _______ _____ _____    ______ ____
ROOT
ATOM      1  C   UNL     1     -28.933 -12.554  17.800  0.00  0.00    +0.121 A 
ATOM      2  C   UNL     1     -28.660 -11.229  17.444  0.00  0.00    +0.047 A 
ATOM      3  C   UNL     1     -29.115 -10.172  18.239  0.00  0.00    +0.027 A 
ATOM      4  C   UNL     1     -29.864 -10.426  19.395  0.00  0.00    +0.034 A 
ATOM      5  C   UNL     1     -30.092 -11.756  19.785  0.00  0.00    +0.027 A 
ATOM      6  C   UNL     1     -29.628 -12.813  18.995  0.00  0.00    +0.047 A 
ENDROOT
BRANCH   4   7
ATOM      7  N   UNL     1     -30.349  -9.324  20.178  0.00  0.00    -0.281 N 
ATOM      8  C   UNL     1     -31.283  -8.348  19.679  0.00  0.00    +0.248 C 
ATOM      9  O   UNL     1     -31.773  -8.479  18.525  0.00  0.00    -0.270 OA
ATOM     10  H   UNL     1     -29.896  -9.170  21.108  0.00  0.00    +0.155 HD
BRANCH   8  11
ATOM     11  C   UNL     1     -31.665  -7.167  20.489  0.00  0.00    +0.037 A 
ATOM     12  C   UNL     1     -30.670  -6.280  20.938  0.00  0.00    +0.013 A 
ATOM     13  C   UNL     1     -31.012  -5.169  21.712  0.00  0.00    +0.001 A 
ATOM     14  C   UNL     1     -32.344  -4.939  22.062  0.00  0.00    +0.003 A 
ATOM     15  C   UNL     1     -33.344  -5.830  21.653  0.00  0.00    -0.050 A 
ATOM     16  C   UNL     1     -34.778  -5.578  22.019  0.00  0.00    +0.044 C 
ATOM     17  C   UNL     1     -33.004  -6.933  20.855  0.00  0.00    +0.016 A 
ENDBRANCH   8  11
ENDBRANCH   4   7
BRANCH   1  18
ATOM     18  O   UNL     1     -28.502 -13.576  16.939  0.00  0.00    -0.483 OA
BRANCH  18  19
ATOM     19  C   UNL     1     -29.253 -14.743  16.609  0.00  0.00    +0.324 C 
BRANCH  19  21
ATOM     20  N   UNL     1     -30.318 -13.293  14.810  0.00  0.00    -0.282 N 
ATOM     21  C   UNL     1     -30.410 -14.395  15.719  0.00  0.00    +0.255 C 
ATOM     22  O   UNL     1     -31.480 -15.056  15.806  0.00  0.00    -0.272 OA
ATOM     23  H   UNL     1     -29.404 -12.797  14.702  0.00  0.00    +0.155 HD
BRANCH  20  29
ATOM     24  C   UNL     1     -32.298 -11.887  14.368  0.00  0.00    -0.026 A 
ATOM     25  C   UNL     1     -33.399 -11.565  13.559  0.00  0.00    +0.005 A 
ATOM     26  C   UNL     1     -33.610 -12.230  12.353  0.00  0.00    +0.001 A 
ATOM     27  C   UNL     1     -32.729 -13.228  11.938  0.00  0.00    +0.005 A 
ATOM     28  C   UNL     1     -31.619 -13.574  12.725  0.00  0.00    -0.026 A 
ATOM     29  C   UNL     1     -31.406 -12.906  13.957  0.00  0.00    +0.040 A 
BRANCH  24  31
ATOM     30  C   UNL     1     -33.077 -11.656  16.738  0.00  0.00    +0.009 C 
ATOM     31  C   UNL     1     -32.109 -11.148  15.672  0.00  0.00    +0.033 C 
ENDBRANCH  24  31
BRANCH  28  32
ATOM     32  C   UNL     1     -30.739 -14.721  12.278  0.00  0.00    +0.033 C 
ATOM     33  C   UNL     1     -29.273 -14.299  12.248  0.00  0.00    +0.009 C 
ENDBRANCH  28  32
ENDBRANCH  20  29
ENDBRANCH  19  21
ENDBRANCH  18  19
ENDBRANCH   1  18
TORSDOF 8
ENDMDL
MODEL 2
REMARK VINA RESULT:    -3.297      0.334      2.292
REMARK INTER + INTRA:          -6.370
REMARK INTER:                  -5.043
REMARK INTRA:                  -1.328
REMARK UNBOUND:                -1.532
REMARK  Name = 
REMARK  11 active torsions:
REMARK  status: ('A' for Active; 'I' for Inactive)
REMARK    1  A    between atoms: C_1  and  C_2
REMARK    2  A    between atoms: C_2  and  C_3
REMARK    3  A    between atoms: C_7  and  C_8
REMARK    4  A    between atoms: C_8  and  C_9
REMARK    5  A    between atoms: C_10  and  N_11
REMARK    6  A    between atoms: C_12  and  C_14
REMARK    7  A    between atoms: C_14  and  O_15
REMARK    8  A    between atoms: O_15  and  C_16
REMARK    9  A    between atoms: C_19  and  N_22
REMARK   10  A    between atoms: C_23  and  C_25
REMARK   11  A    between atoms: C_29  and  C_30
REMARK                            x       y       z     vdW  Elec       q    Type
REMARK                         _______ _______ _______ _____ _____    ______ ____
ROOT
ATOM      1  C   UNL     1     -29.158 -12.541  17.625  0.00  0.00    +0.121 A 
ATOM      2  C   UNL     1     -28.951 -11.200  17.287  0.00  0.00    +0.047 A 
ATOM      3  C   UNL     1     -29.441 -10.178  18.106  0.00  0.00    +0.027 A 
ATOM      4  C   UNL     1     -30.160 -10.484  19.268  0.00  0.00    +0.034 A 
ATOM      5  C   UNL     1     -30.320 -11.829  19.641  0.00  0.00    +0.027 A 
ATOM      6  C   UNL     1     -29.822 -12.851  18.826  0.00  0.00    +0.047 A 
ENDROOT
BRANCH   4   7
ATOM      7  N   UNL     1     -30.682  -9.417  20.076  0.00  0.00    -0.281 N 
ATOM      8  C   UNL     1     -31.485  -8.344  19.550  0.00  0.00    +0.248 C 
ATOM      9  O   UNL     1     -31.822  -8.349  18.335  0.00  0.00    -0.270 OA
ATOM     10  H   UNL     1     -30.350  -9.368  21.067  0.00  0.00    +0.155 HD
BRANCH   8  11
ATOM     11  C   UNL     1     -31.904  -7.208  20.404  0.00  0.00    +0.037 A 
ATOM     12  C   UNL     1     -30.941  -6.298  20.875  0.00  0.00    +0.013 A 
ATOM     13  C   UNL     1     -31.317  -5.229  21.691  0.00  0.00    +0.001 A 
ATOM     14  C   UNL     1     -32.653  -5.065  22.062  0.00  0.00    +0.003 A 
ATOM     15  C   UNL     1     -33.622  -5.981  21.632  0.00  0.00    -0.050 A 
ATOM     16  C   UNL     1     -35.060  -5.800  22.021  0.00  0.00    +0.044 C 
ATOM     17  C   UNL     1     -33.247  -7.042  20.792  0.00  0.00    +0.016 A 
ENDBRANCH   8  11
ENDBRANCH   4   7
BRANCH   1  18
ATOM     18  O   UNL     1     -28.695 -13.529  16.741  0.00  0.00    -0.483 OA
BRANCH  18  19
ATOM     19  C   UNL     1     -29.409 -14.711  16.383  0.00  0.00    +0.324 C 
BRANCH  19  21
ATOM     20  N   UNL     1     -30.637 -13.239  14.711  0.00  0.00    -0.282 N 
ATOM     21  C   UNL     1     -30.635 -14.369  15.588  0.00  0.00    +0.255 C 
ATOM     22  O   UNL     1     -31.679 -15.062  15.731  0.00  0.00    -0.272 OA
ATOM     23  H   UNL     1     -29.746 -12.715  14.552  0.00  0.00    +0.155 HD
BRANCH  20  29
ATOM     24  C   UNL     1     -32.059 -13.482  12.707  0.00  0.00    -0.026 A 
ATOM     25  C   UNL     1     -33.151 -13.052  11.938  0.00  0.00    +0.005 A 
ATOM     26  C   UNL     1     -33.980 -12.029  12.394  0.00  0.00    +0.001 A 
ATOM     27  C   UNL     1     -33.730 -11.417  13.622  0.00  0.00    +0.005 A 
ATOM     28  C   UNL     1     -32.643 -11.823  14.414  0.00  0.00    -0.026 A 
ATOM     29  C   UNL     1     -31.792 -12.857  13.950  0.00  0.00    +0.040 A 
BRANCH  24  31
ATOM     30  C   UNL     1     -29.717 -14.153  12.124  0.00  0.00    +0.009 C 
ATOM     31  C   UNL     1     -31.180 -14.588  12.173  0.00  0.00    +0.033 C 
ENDBRANCH  24  31
BRANCH  28  32
ATOM     32  C   UNL     1     -32.359 -11.073  15.697  0.00  0.00    +0.033 C 
ATOM     33  C   UNL     1     -33.321 -11.505  16.800  0.00  0.00    +0.009 C 
ENDBRANCH  28  32
ENDBRANCH  20  29
ENDBRANCH  19  21
ENDBRANCH  18  19
ENDBRANCH   1  18
TORSDOF 8
ENDMDL
MODEL 3
REMARK VINA RESULT:    -2.775      2.172      8.661
REMARK INTER + INTRA:          -5.605
REMARK INTER:                  -3.723
REMARK INTRA:                  -1.882
REMARK UNBOUND:                -1.532
REMARK  Name = 
REMARK  11 active torsions:
REMARK  status: ('A' for Active; 'I' for Inactive)
REMARK    1  A    between atoms: C_1  and  C_2
REMARK    2  A    between atoms: C_2  and  C_3
REMARK    3  A    between atoms: C_7  and  C_8
REMARK    4  A    between atoms: C_8  and  C_9
REMARK    5  A    between atoms: C_10  and  N_11
REMARK    6  A    between atoms: C_12  and  C_14
REMARK    7  A    between atoms: C_14  and  O_15
REMARK    8  A    between atoms: O_15  and  C_16
REMARK    9  A    between atoms: C_19  and  N_22
REMARK   10  A    between atoms: C_23  and  C_25
REMARK   11  A    between atoms: C_29  and  C_30
REMARK                            x       y       z     vdW  Elec       q    Type
REMARK                         _______ _______ _______ _____ _____    ______ ____
ROOT
ATOM      1  C   UNL     1     -30.616 -11.000  20.697  0.00  0.00    +0.121 A 
ATOM      2  C   UNL     1     -29.557 -10.724  19.826  0.00  0.00    +0.047 A 
ATOM      3  C   UNL     1     -29.418 -11.436  18.630  0.00  0.00    +0.027 A 
ATOM      4  C   UNL     1     -30.329 -12.446  18.297  0.00  0.00    +0.034 A 
ATOM      5  C   UNL     1     -31.425 -12.687  19.142  0.00  0.00    +0.027 A 
ATOM      6  C   UNL     1     -31.569 -11.968  20.333  0.00  0.00    +0.047 A 
ENDROOT
BRANCH   4   7
ATOM      7  N   UNL     1     -30.147 -13.187  17.080  0.00  0.00    -0.281 N 
ATOM      8  C   UNL     1     -30.288 -12.605  15.770  0.00  0.00    +0.248 C 
ATOM      9  O   UNL     1     -30.514 -11.371  15.651  0.00  0.00    -0.270 OA
ATOM     10  H   UNL     1     -30.028 -14.222  17.169  0.00  0.00    +0.155 HD
BRANCH   8  11
ATOM     11  C   UNL     1     -30.200 -13.438  14.547  0.00  0.00    +0.037 A 
ATOM     12  C   UNL     1     -31.379 -13.884  13.923  0.00  0.00    +0.013 A 
ATOM     13  C   UNL     1     -31.314 -14.680  12.777  0.00  0.00    +0.001 A 
ATOM     14  C   UNL     1     -30.076 -15.055  12.251  0.00  0.00    +0.003 A 
ATOM     15  C   UNL     1     -28.891 -14.648  12.878  0.00  0.00    -0.050 A 
ATOM     16  C   UNL     1     -27.560 -15.041  12.307  0.00  0.00    +0.044 C 
ATOM     17  C   UNL     1     -28.957 -13.829  14.016  0.00  0.00    +0.016 A 
ENDBRANCH   8  11
ENDBRANCH   4   7
BRANCH   1  18
ATOM     18  O   UNL     1     -30.679 -10.295  21.910  0.00  0.00    -0.483 OA
BRANCH  18  19
ATOM     19  C   UNL     1     -30.776  -8.877  22.032  0.00  0.00    +0.324 C 
BRANCH  19  21
ATOM     20  N   UNL     1     -31.831  -7.659  20.063  0.00  0.00    -0.282 N 
ATOM     21  C   UNL     1     -31.981  -8.364  21.300  0.00  0.00    +0.255 C 
ATOM     22  O   UNL     1     -33.126  -8.522  21.805  0.00  0.00    -0.272 OA
ATOM     23  H   UNL     1     -30.885  -7.594  19.625  0.00  0.00    +0.155 HD
BRANCH  20  29
ATOM     24  C   UNL     1     -33.556  -7.891  18.313  0.00  0.00    -0.026 A 
ATOM     25  C   UNL     1     -34.605  -7.335  17.563  0.00  0.00    +0.005 A 
ATOM     26  C   UNL     1     -35.063  -6.047  17.835  0.00  0.00    +0.001 A 
ATOM     27  C   UNL     1     -34.479  -5.294  18.852  0.00  0.00    +0.005 A 
ATOM     28  C   UNL     1     -33.426  -5.822  19.618  0.00  0.00    -0.026 A 
ATOM     29  C   UNL     1     -32.952  -7.128  19.340  0.00  0.00    +0.040 A 
BRANCH  24  31
ATOM     30  C   UNL     1     -32.928  -9.474  16.474  0.00  0.00    +0.009 C 
ATOM     31  C   UNL     1     -33.084  -9.288  17.982  0.00  0.00    +0.033 C 
ENDBRANCH  24  31
BRANCH  28  32
ATOM     32  C   UNL     1     -32.766  -4.938  20.654  0.00  0.00    +0.033 C 
ATOM     33  C   UNL     1     -33.519  -5.002  21.979  0.00  0.00    +0.009 C 
ENDBRANCH  28  32
ENDBRANCH  20  29
ENDBRANCH  19  21
ENDBRANCH  18  19
ENDBRANCH   1  18
TORSDOF 8
ENDMDL
MODEL 4
REMARK VINA RESULT:    -2.337      1.824      3.340
REMARK INTER + INTRA:          -4.962
REMARK INTER:                  -3.781
REMARK INTRA:                  -1.181
REMARK UNBOUND:                -1.532
REMARK  Name = 
REMARK  11 active torsions:
REMARK  status: ('A' for Active; 'I' for Inactive)
REMARK    1  A    between atoms: C_1  and  C_2
REMARK    2  A    between atoms: C_2  and  C_3
REMARK    3  A    between atoms: C_7  and  C_8
REMARK    4  A    between atoms: C_8  and  C_9
REMARK    5  A    between atoms: C_10  and  N_11
REMARK    6  A    between atoms: C_12  and  C_14
REMARK    7  A    between atoms: C_14  and  O_15
REMARK    8  A    between atoms: O_15  and  C_16
REMARK    9  A    between atoms: C_19  and  N_22
REMARK   10  A    between atoms: C_23  and  C_25
REMARK   11  A    between atoms: C_29  and  C_30
REMARK                            x       y       z     vdW  Elec       q    Type
REMARK                         _______ _______ _______ _____ _____    ______ ____
ROOT
ATOM      1  C   UNL     1     -29.741 -12.679  19.878  0.00  0.00    +0.121 A 
ATOM      2  C   UNL     1     -29.198 -11.390  19.912  0.00  0.00    +0.047 A 
ATOM      3  C   UNL     1     -30.028 -10.274  20.059  0.00  0.00    +0.027 A 
ATOM      4  C   UNL     1     -31.416 -10.432  20.159  0.00  0.00    +0.034 A 
ATOM      5  C   UNL     1     -31.959 -11.728  20.182  0.00  0.00    +0.027 A 
ATOM      6  C   UNL     1     -31.128 -12.844  20.044  0.00  0.00    +0.047 A 
ENDROOT
BRANCH   4   7
ATOM      7  N   UNL     1     -32.252  -9.270  20.277  0.00  0.00    -0.281 N 
ATOM      8  C   UNL     1     -32.888  -8.634  19.152  0.00  0.00    +0.248 C 
ATOM      9  O   UNL     1     -32.783  -9.140  18.002  0.00  0.00    -0.270 OA
ATOM     10  H   UNL     1     -32.287  -8.806  21.214  0.00  0.00    +0.155 HD
BRANCH   8  11
ATOM     11  C   UNL     1     -33.648  -7.372  19.312  0.00  0.00    +0.037 A 
ATOM     12  C   UNL     1     -34.183  -6.732  18.180  0.00  0.00    +0.013 A 
ATOM     13  C   UNL     1     -34.890  -5.536  18.312  0.00  0.00    +0.001 A 
ATOM     14  C   UNL     1     -35.058  -4.954  19.570  0.00  0.00    +0.003 A 
ATOM     15  C   UNL     1     -34.503  -5.558  20.706  0.00  0.00    -0.050 A 
ATOM     16  C   UNL     1     -34.691  -4.940  22.061  0.00  0.00    +0.044 C 
ATOM     17  C   UNL     1     -33.812  -6.773  20.575  0.00  0.00    +0.016 A 
ENDBRANCH   8  11
ENDBRANCH   4   7
BRANCH   1  18
ATOM     18  O   UNL     1     -28.870 -13.761  19.672  0.00  0.00    -0.483 OA
BRANCH  18  19
ATOM     19  C   UNL     1     -28.066 -13.959  18.510  0.00  0.00    +0.324 C 
BRANCH  19  21
ATOM     20  N   UNL     1     -29.574 -14.557  16.550  0.00  0.00    -0.282 N 
ATOM     21  C   UNL     1     -28.822 -13.576  17.271  0.00  0.00    +0.255 C 
ATOM     22  O   UNL     1     -28.757 -12.390  16.847  0.00  0.00    -0.272 OA
ATOM     23  H   UNL     1     -29.672 -15.519  16.949  0.00  0.00    +0.155 HD
BRANCH  20  29
ATOM     24  C   UNL     1     -29.685 -14.457  14.086  0.00  0.00    -0.026 A 
ATOM     25  C   UNL     1     -30.368 -14.082  12.919  0.00  0.00    +0.005 A 
ATOM     26  C   UNL     1     -31.641 -13.518  12.993  0.00  0.00    +0.001 A 
ATOM     27  C   UNL     1     -32.249 -13.317  14.231  0.00  0.00    +0.005 A 
ATOM     28  C   UNL     1     -31.590 -13.680  15.418  0.00  0.00    -0.026 A 
ATOM     29  C   UNL     1     -30.292 -14.245  15.347  0.00  0.00    +0.040 A 
BRANCH  24  31
ATOM     30  C   UNL     1     -27.597 -14.557  12.705  0.00  0.00    +0.009 C 
ATOM     31  C   UNL     1     -28.305 -15.056  13.963  0.00  0.00    +0.033 C 
ENDBRANCH  24  31
BRANCH  28  32
ATOM     32  C   UNL     1     -32.251 -13.364  16.742  0.00  0.00    +0.033 C 
ATOM     33  C   UNL     1     -32.907 -11.986  16.704  0.00  0.00    +0.009 C 
ENDBRANCH  28  32
ENDBRANCH  20  29
ENDBRANCH  19  21
ENDBRANCH  18  19
ENDBRANCH   1  18
TORSDOF 8
ENDMDL
MODEL 5
REMARK VINA RESULT:    -2.207      1.476      3.242
REMARK INTER + INTRA:          -4.771
REMARK INTER:                  -4.657
REMARK INTRA:                  -0.114
REMARK UNBOUND:                -1.532
REMARK  Name = 
REMARK  11 active torsions:
REMARK  status: ('A' for Active; 'I' for Inactive)
REMARK    1  A    between atoms: C_1  and  C_2
REMARK    2  A    between atoms: C_2  and  C_3
REMARK    3  A    between atoms: C_7  and  C_8
REMARK    4  A    between atoms: C_8  and  C_9
REMARK    5  A    between atoms: C_10  and  N_11
REMARK    6  A    between atoms: C_12  and  C_14
REMARK    7  A    between atoms: C_14  and  O_15
REMARK    8  A    between atoms: O_15  and  C_16
REMARK    9  A    between atoms: C_19  and  N_22
REMARK   10  A    between atoms: C_23  and  C_25
REMARK   11  A    between atoms: C_29  and  C_30
REMARK                            x       y       z     vdW  Elec       q    Type
REMARK                         _______ _______ _______ _____ _____    ______ ____
ROOT
ATOM      1  C   UNL     1     -30.199 -13.225  17.602  0.00  0.00    +0.121 A 
ATOM      2  C   UNL     1     -29.551 -12.087  17.108  0.00  0.00    +0.047 A 
ATOM      3  C   UNL     1     -29.588 -10.884  17.819  0.00  0.00    +0.027 A 
ATOM      4  C   UNL     1     -30.288 -10.798  19.029  0.00  0.00    +0.034 A 
ATOM      5  C   UNL     1     -30.891 -11.952  19.556  0.00  0.00    +0.027 A 
ATOM      6  C   UNL     1     -30.846 -13.157  18.849  0.00  0.00    +0.047 A 
ENDROOT
BRANCH   4   7
ATOM      7  N   UNL     1     -30.340  -9.543  19.726  0.00  0.00    -0.281 N 
ATOM      8  C   UNL     1     -31.541  -9.016  20.321  0.00  0.00    +0.248 C 
ATOM      9  O   UNL     1     -32.601  -9.698  20.307  0.00  0.00    -0.270 OA
ATOM     10  H   UNL     1     -29.485  -8.941  19.681  0.00  0.00    +0.155 HD
BRANCH   8  11
ATOM     11  C   UNL     1     -31.567  -7.665  20.930  0.00  0.00    +0.037 A 
ATOM     12  C   UNL     1     -32.801  -7.047  21.201  0.00  0.00    +0.013 A 
ATOM     13  C   UNL     1     -32.842  -5.770  21.764  0.00  0.00    +0.001 A 
ATOM     14  C   UNL     1     -31.658  -5.086  22.045  0.00  0.00    +0.003 A 
ATOM     15  C   UNL     1     -30.420  -5.671  21.751  0.00  0.00    -0.050 A 
ATOM     16  C   UNL     1     -29.145  -4.943  22.063  0.00  0.00    +0.044 C 
ATOM     17  C   UNL     1     -30.378  -6.965  21.207  0.00  0.00    +0.016 A 
ENDBRANCH   8  11
ENDBRANCH   4   7
BRANCH   1  18
ATOM     18  O   UNL     1     -30.178 -14.392  16.822  0.00  0.00    -0.483 OA
BRANCH  18  19
ATOM     19  C   UNL     1     -31.093 -14.692  15.768  0.00  0.00    +0.324 C 
BRANCH  19  21
ATOM     20  N   UNL     1     -33.067 -13.176  15.246  0.00  0.00    -0.282 N 
ATOM     21  C   UNL     1     -31.661 -13.431  15.185  0.00  0.00    +0.255 C 
ATOM     22  O   UNL     1     -30.893 -12.617  14.604  0.00  0.00    -0.272 OA
ATOM     23  H   UNL     1     -33.681 -13.827  15.787  0.00  0.00    +0.155 HD
BRANCH  20  29
ATOM     24  C   UNL     1     -34.063 -11.989  13.324  0.00  0.00    -0.026 A 
ATOM     25  C   UNL     1     -34.576 -10.810  12.761  0.00  0.00    +0.005 A 
ATOM     26  C   UNL     1     -34.704  -9.656  13.532  0.00  0.00    +0.001 A 
ATOM     27  C   UNL     1     -34.319  -9.659  14.871  0.00  0.00    +0.005 A 
ATOM     28  C   UNL     1     -33.800 -10.823  15.463  0.00  0.00    -0.026 A 
ATOM     29  C   UNL     1     -33.660 -11.997  14.680  0.00  0.00    +0.040 A 
BRANCH  24  31
ATOM     30  C   UNL     1     -32.504 -13.380  11.940  0.00  0.00    +0.009 C 
ATOM     31  C   UNL     1     -33.933 -13.217  12.453  0.00  0.00    +0.033 C 
ENDBRANCH  24  31
BRANCH  28  32
ATOM     32  C   UNL     1     -33.315 -10.757  16.894  0.00  0.00    +0.033 C 
ATOM     33  C   UNL     1     -34.218  -9.856  17.731  0.00  0.00    +0.009 C 
ENDBRANCH  28  32
ENDBRANCH  20  29
ENDBRANCH  19  21
ENDBRANCH  18  19
ENDBRANCH   1  18
TORSDOF 8
ENDMDL
MODEL 6
REMARK VINA RESULT:    -1.520      1.827      2.450
REMARK INTER + INTRA:          -3.762
REMARK INTER:                  -3.123
REMARK INTRA:                  -0.639
REMARK UNBOUND:                -1.532
REMARK  Name = 
REMARK  11 active torsions:
REMARK  status: ('A' for Active; 'I' for Inactive)
REMARK    1  A    between atoms: C_1  and  C_2
REMARK    2  A    between atoms: C_2  and  C_3
REMARK    3  A    between atoms: C_7  and  C_8
REMARK    4  A    between atoms: C_8  and  C_9
REMARK    5  A    between atoms: C_10  and  N_11
REMARK    6  A    between atoms: C_12  and  C_14
REMARK    7  A    between atoms: C_14  and  O_15
REMARK    8  A    between atoms: O_15  and  C_16
REMARK    9  A    between atoms: C_19  and  N_22
REMARK   10  A    between atoms: C_23  and  C_25
REMARK   11  A    between atoms: C_29  and  C_30
REMARK                            x       y       z     vdW  Elec       q    Type
REMARK                         _______ _______ _______ _____ _____    ______ ____
ROOT
ATOM      1  C   UNL     1     -29.712 -12.741  19.787  0.00  0.00    +0.121 A 
ATOM      2  C   UNL     1     -29.195 -11.473  20.077  0.00  0.00    +0.047 A 
ATOM      3  C   UNL     1     -30.049 -10.376  20.228  0.00  0.00    +0.027 A 
ATOM      4  C   UNL     1     -31.433 -10.529  20.077  0.00  0.00    +0.034 A 
ATOM      5  C   UNL     1     -31.959 -11.810  19.842  0.00  0.00    +0.027 A 
ATOM      6  C   UNL     1     -31.106 -12.909  19.700  0.00  0.00    +0.047 A 
ENDROOT
BRANCH   4   7
ATOM      7  N   UNL     1     -32.287  -9.382  20.205  0.00  0.00    -0.281 N 
ATOM      8  C   UNL     1     -32.818  -8.660  19.077  0.00  0.00    +0.248 C 
ATOM      9  O   UNL     1     -32.597  -9.071  17.906  0.00  0.00    -0.270 OA
ATOM     10  H   UNL     1     -32.418  -8.994  21.168  0.00  0.00    +0.155 HD
BRANCH   8  11
ATOM     11  C   UNL     1     -33.602  -7.416  19.263  0.00  0.00    +0.037 A 
ATOM     12  C   UNL     1     -34.163  -6.773  18.145  0.00  0.00    +0.013 A 
ATOM     13  C   UNL     1     -34.894  -5.594  18.301  0.00  0.00    +0.001 A 
ATOM     14  C   UNL     1     -35.060  -5.032  19.569  0.00  0.00    +0.003 A 
ATOM     15  C   UNL     1     -34.481  -5.639  20.690  0.00  0.00    -0.050 A 
ATOM     16  C   UNL     1     -34.668  -5.044  22.055  0.00  0.00    +0.044 C 
ATOM     17  C   UNL     1     -33.766  -6.838  20.536  0.00  0.00    +0.016 A 
ENDBRANCH   8  11
ENDBRANCH   4   7
BRANCH   1  18
ATOM     18  O   UNL     1     -28.809 -13.797  19.589  0.00  0.00    -0.483 OA
BRANCH  18  19
ATOM     19  C   UNL     1     -27.989 -13.972  18.434  0.00  0.00    +0.324 C 
BRANCH  19  21
ATOM     20  N   UNL     1     -29.605 -14.248  16.489  0.00  0.00    -0.282 N 
ATOM     21  C   UNL     1     -28.675 -13.435  17.212  0.00  0.00    +0.255 C 
ATOM     22  O   UNL     1     -28.395 -12.276  16.803  0.00  0.00    -0.272 OA
ATOM     23  H   UNL     1     -29.877 -15.180  16.876  0.00  0.00    +0.155 HD
BRANCH  20  29
ATOM     24  C   UNL     1     -31.482 -13.069  15.402  0.00  0.00    -0.026 A 
ATOM     25  C   UNL     1     -32.158 -12.686  14.233  0.00  0.00    +0.005 A 
ATOM     26  C   UNL     1     -31.634 -12.994  12.979  0.00  0.00    +0.001 A 
ATOM     27  C   UNL     1     -30.432 -13.693  12.872  0.00  0.00    +0.005 A 
ATOM     28  C   UNL     1     -29.733 -14.092  14.023  0.00  0.00    -0.026 A 
ATOM     29  C   UNL     1     -30.267 -13.788  15.301  0.00  0.00    +0.040 A 
BRANCH  24  31
ATOM     30  C   UNL     1     -33.534 -12.256  16.589  0.00  0.00    +0.009 C 
ATOM     31  C   UNL     1     -32.087 -12.722  16.741  0.00  0.00    +0.033 C 
ENDBRANCH  24  31
BRANCH  28  32
ATOM     32  C   UNL     1     -28.479 -14.923  13.861  0.00  0.00    +0.033 C 
ATOM     33  C   UNL     1     -27.679 -14.462  12.646  0.00  0.00    +0.009 C 
ENDBRANCH  28  32
ENDBRANCH  20  29
ENDBRANCH  19  21
ENDBRANCH  18  19
ENDBRANCH   1  18
TORSDOF 8
ENDMDL
MODEL 7
REMARK VINA RESULT:    -1.350      2.432      8.887
REMARK INTER + INTRA:          -3.513
REMARK INTER:                  -4.034
REMARK INTRA:                   0.521
REMARK UNBOUND:                -1.532
REMARK  Name = 
REMARK  11 active torsions:
REMARK  status: ('A' for Active; 'I' for Inactive)
REMARK    1  A    between atoms: C_1  and  C_2
REMARK    2  A    between atoms: C_2  and  C_3
REMARK    3  A    between atoms: C_7  and  C_8
REMARK    4  A    between atoms: C_8  and  C_9
REMARK    5  A    between atoms: C_10  and  N_11
REMARK    6  A    between atoms: C_12  and  C_14
REMARK    7  A    between atoms: C_14  and  O_15
REMARK    8  A    between atoms: O_15  and  C_16
REMARK    9  A    between atoms: C_19  and  N_22
REMARK   10  A    between atoms: C_23  and  C_25
REMARK   11  A    between atoms: C_29  and  C_30
REMARK                            x       y       z     vdW  Elec       q    Type
REMARK                         _______ _______ _______ _____ _____    ______ ____
ROOT
ATOM      1  C   UNL     1     -34.134  -7.989  17.830  0.00  0.00    +0.121 A 
ATOM      2  C   UNL     1     -32.750  -8.179  17.748  0.00  0.00    +0.047 A 
ATOM      3  C   UNL     1     -32.208  -9.036  16.784  0.00  0.00    +0.027 A 
ATOM      4  C   UNL     1     -33.044  -9.726  15.898  0.00  0.00    +0.034 A 
ATOM      5  C   UNL     1     -34.429  -9.494  15.941  0.00  0.00    +0.027 A 
ATOM      6  C   UNL     1     -34.970  -8.630  16.899  0.00  0.00    +0.047 A 
ENDROOT
BRANCH   4   7
ATOM      7  N   UNL     1     -32.466 -10.625  14.939  0.00  0.00    -0.281 N 
ATOM      8  C   UNL     1     -32.594 -12.057  15.018  0.00  0.00    +0.248 C 
ATOM      9  O   UNL     1     -33.301 -12.576  15.923  0.00  0.00    -0.270 OA
ATOM     10  H   UNL     1     -31.823 -10.208  14.227  0.00  0.00    +0.155 HD
BRANCH   8  11
ATOM     11  C   UNL     1     -31.885 -12.945  14.066  0.00  0.00    +0.037 A 
ATOM     12  C   UNL     1     -32.490 -13.278  12.841  0.00  0.00    +0.013 A 
ATOM     13  C   UNL     1     -31.840 -14.123  11.939  0.00  0.00    +0.001 A 
ATOM     14  C   UNL     1     -30.590 -14.659  12.253  0.00  0.00    +0.003 A 
ATOM     15  C   UNL     1     -29.986 -14.366  13.483  0.00  0.00    -0.050 A 
ATOM     16  C   UNL     1     -28.638 -14.933  13.819  0.00  0.00    +0.044 C 
ATOM     17  C   UNL     1     -30.629 -13.498  14.380  0.00  0.00    +0.016 A 
ENDBRANCH   8  11
ENDBRANCH   4   7
BRANCH   1  18
ATOM     18  O   UNL     1     -34.632  -7.163  18.851  0.00  0.00    -0.483 OA
BRANCH  18  19
ATOM     19  C   UNL     1     -35.061  -7.613  20.135  0.00  0.00    +0.324 C 
BRANCH  19  21
ATOM     20  N   UNL     1     -32.822  -8.818  20.054  0.00  0.00    -0.282 N 
ATOM     21  C   UNL     1     -34.014  -8.480  20.771  0.00  0.00    +0.255 C 
ATOM     22  O   UNL     1     -34.210  -8.942  21.927  0.00  0.00    -0.272 OA
ATOM     23  H   UNL     1     -32.644  -8.375  19.124  0.00  0.00    +0.155 HD
BRANCH  20  29
ATOM     24  C   UNL     1     -31.810 -11.052  20.334  0.00  0.00    -0.026 A 
ATOM     25  C   UNL     1     -30.854 -11.881  20.939  0.00  0.00    +0.005 A 
ATOM     26  C   UNL     1     -29.892 -11.346  21.794  0.00  0.00    +0.001 A 
ATOM     27  C   UNL     1     -29.873  -9.977  22.061  0.00  0.00    +0.005 A 
ATOM     28  C   UNL     1     -30.819  -9.122  21.473  0.00  0.00    -0.026 A 
ATOM     29  C   UNL     1     -31.804  -9.664  20.609  0.00  0.00    +0.040 A 
BRANCH  24  31
ATOM     30  C   UNL     1     -32.323 -12.974  18.810  0.00  0.00    +0.009 C 
ATOM     31  C   UNL     1     -32.840 -11.673  19.420  0.00  0.00    +0.033 C 
ENDBRANCH  24  31
BRANCH  28  32
ATOM     32  C   UNL     1     -30.815  -7.659  21.859  0.00  0.00    +0.033 C 
ATOM     33  C   UNL     1     -30.205  -6.808  20.749  0.00  0.00    +0.009 C 
ENDBRANCH  28  32
ENDBRANCH  20  29
ENDBRANCH  19  21
ENDBRANCH  18  19
ENDBRANCH   1  18
TORSDOF 8
ENDMDL
