MODEL 1
REMARK VINA RESULT:    -4.824      0.000      0.000
REMARK INTER + INTRA:          -9.374
REMARK INTER:                  -6.940
REMARK INTRA:                  -2.434
REMARK UNBOUND:                -2.434
REMARK  Name = 
REMARK  10 active torsions:
REMARK  status: ('A' for Active; 'I' for Inactive)
REMARK    1  A    between atoms: C_1  and  C_2
REMARK    2  A    between atoms: C_2  and  C_3
REMARK    3  A    between atoms: C_2  and  O_4
REMARK    4  A    between atoms: O_4  and  C_5
REMARK    5  A    between atoms: C_10  and  C_11
REMARK    6  A    between atoms: N_13  and  C_14
REMARK    7  A    between atoms: C_14  and  C_15
REMARK    8  A    between atoms: C_15  and  C_16
REMARK    9  A    between atoms: C_15  and  C_19
REMARK   10  A    between atoms: C_16  and  O_18
REMARK                            x       y       z     vdW  Elec       q    Type
REMARK                         _______ _______ _______ _____ _____    ______ ____
ROOT
ATOM      1  C   UNL     1     -33.757 -11.779  15.932  0.00  0.00    +0.248 C 
ATOM      2  O   UNL     1     -34.986 -11.758  16.219  0.00  0.00    -0.270 OA
ATOM      3  N   UNL     1     -32.791 -11.377  16.913  0.00  0.00    -0.310 N 
ATOM      4  H   UNL     1     -31.792 -11.262  16.625  0.00  0.00    +0.149 HD
ENDROOT
BRANCH   1  10
ATOM      5  C   UNL     1     -32.068 -12.729  14.308  0.00  0.00    +0.133 A 
ATOM      6  C   UNL     1     -31.719 -13.058  12.981  0.00  0.00    +0.046 A 
ATOM      7  C   UNL     1     -32.623 -12.854  11.938  0.00  0.00    +0.004 A 
ATOM      8  C   UNL     1     -33.886 -12.326  12.198  0.00  0.00    +0.001 A 
ATOM      9  C   UNL     1     -34.246 -11.990  13.503  0.00  0.00    +0.017 A 
ATOM     10  C   UNL     1     -33.342 -12.169  14.565  0.00  0.00    +0.078 A 
BRANCH   5  11
ATOM     11  O   UNL     1     -31.200 -12.974  15.387  0.00  0.00    -0.489 OA
BRANCH  11  13
ATOM     12  C   UNL     1     -31.131 -14.459  17.276  0.00  0.00    +0.051 C 
ATOM     13  C   UNL     1     -30.733 -14.256  15.817  0.00  0.00    +0.167 C 
ATOM     14  C   UNL     1     -29.211 -14.341  15.668  0.00  0.00    +0.051 C 
ENDBRANCH  11  13
ENDBRANCH   5  11
ENDBRANCH   1  10
BRANCH   3  15
ATOM     15  C   UNL     1     -33.194 -11.030  18.277  0.00  0.00    +0.119 C 
BRANCH  15  16
ATOM     16  C   UNL     1     -32.074 -10.271  19.024  0.00  0.00    +0.118 C 
BRANCH  16  17
ATOM     17  C   UNL     1     -30.727 -11.052  18.995  0.00  0.00    +0.009 C 
ATOM     18  C   UNL     1     -30.167 -11.278  20.413  0.00  0.00    +0.032 C 
ATOM     19  C   UNL     1     -28.823 -12.012  20.333  0.00  0.00    +0.160 C 
ATOM     20  O   UNL     1     -27.893 -11.280  19.555  0.00  0.00    -0.380 OA
ATOM     21  C   UNL     1     -28.339 -11.205  18.213  0.00  0.00    +0.160 C 
ATOM     22  C   UNL     1     -29.642 -10.402  18.111  0.00  0.00    +0.032 C 
ENDBRANCH  16  17
BRANCH  16  23
ATOM     23  C   UNL     1     -31.940  -8.859  18.504  0.00  0.00    +0.310 C 
ATOM     24  O   UNL     1     -31.523  -7.948  19.268  0.00  0.00    -0.251 OA
BRANCH  23  25
ATOM     25  O   UNL     1     -32.253  -8.559  17.180  0.00  0.00    -0.480 OA
ATOM     26  H   UNL     1     -31.657  -7.955  16.628  0.00  0.00    +0.295 HD
ENDBRANCH  23  25
ENDBRANCH  16  23
ENDBRANCH  15  16
ENDBRANCH   3  15
TORSDOF 8
ENDMDL
MODEL 2
REMARK VINA RESULT:    -4.817      1.557      2.130
REMARK INTER + INTRA:          -9.363
REMARK INTER:                  -7.377
REMARK INTRA:                  -1.986
REMARK UNBOUND:                -2.434
REMARK  Name = 
REMARK  10 active torsions:
REMARK  status: ('A' for Active; 'I' for Inactive)
REMARK    1  A    between atoms: C_1  and  C_2
REMARK    2  A    between atoms: C_2  and  C_3
REMARK    3  A    between atoms: C_2  and  O_4
REMARK    4  A    between atoms: O_4  and  C_5
REMARK    5  A    between atoms: C_10  and  C_11
REMARK    6  A    between atoms: N_13  and  C_14
REMARK    7  A    between atoms: C_14  and  C_15
REMARK    8  A    between atoms: C_15  and  C_16
REMARK    9  A    between atoms: C_15  and  C_19
REMARK   10  A    between atoms: C_16  and  O_18
REMARK                            x       y       z     vdW  Elec       q    Type
REMARK                         _______ _______ _______ _____ _____    ______ ____
ROOT
ATOM      1  C   UNL     1     -31.744 -10.430  15.664  0.00  0.00    +0.248 C 
ATOM      2  O   UNL     1     -32.301  -9.374  16.073  0.00  0.00    -0.270 OA
ATOM      3  N   UNL     1     -30.454 -10.796  16.175  0.00  0.00    -0.310 N 
ATOM      4  H   UNL     1     -29.939 -11.592  15.732  0.00  0.00    +0.149 HD
ENDROOT
BRANCH   1  10
ATOM      5  C   UNL     1     -31.845 -12.448  14.144  0.00  0.00    +0.133 A 
ATOM      6  C   UNL     1     -32.517 -13.168  13.134  0.00  0.00    +0.046 A 
ATOM      7  C   UNL     1     -33.736 -12.712  12.628  0.00  0.00    +0.004 A 
ATOM      8  C   UNL     1     -34.305 -11.540  13.122  0.00  0.00    +0.001 A 
ATOM      9  C   UNL     1     -33.651 -10.812  14.116  0.00  0.00    +0.017 A 
ATOM     10  C   UNL     1     -32.413 -11.245  14.625  0.00  0.00    +0.078 A 
BRANCH   5  11
ATOM     11  O   UNL     1     -30.645 -12.911  14.713  0.00  0.00    -0.489 OA
BRANCH  11  13
ATOM     12  C   UNL     1     -30.625 -14.290  16.681  0.00  0.00    +0.051 C 
ATOM     13  C   UNL     1     -30.389 -14.240  15.174  0.00  0.00    +0.167 C 
ATOM     14  C   UNL     1     -28.947 -14.644  14.851  0.00  0.00    +0.051 C 
ENDBRANCH  11  13
ENDBRANCH   5  11
ENDBRANCH   1  10
BRANCH   3  15
ATOM     15  C   UNL     1     -29.808 -10.016  17.233  0.00  0.00    +0.119 C 
BRANCH  15  16
ATOM     16  C   UNL     1     -30.401 -10.345  18.621  0.00  0.00    +0.118 C 
BRANCH  16  17
ATOM     17  C   UNL     1     -29.447 -11.245  19.461  0.00  0.00    +0.009 C 
ATOM     18  C   UNL     1     -28.245 -11.734  18.630  0.00  0.00    +0.032 C 
ATOM     19  C   UNL     1     -27.357 -12.648  19.484  0.00  0.00    +0.160 C 
ATOM     20  O   UNL     1     -28.093 -13.755  19.972  0.00  0.00    -0.380 OA
ATOM     21  C   UNL     1     -29.104 -13.311  20.858  0.00  0.00    +0.160 C 
ATOM     22  C   UNL     1     -30.142 -12.454  20.121  0.00  0.00    +0.032 C 
ENDBRANCH  16  17
BRANCH  16  23
ATOM     23  C   UNL     1     -30.802  -9.083  19.348  0.00  0.00    +0.310 C 
ATOM     24  O   UNL     1     -31.983  -8.654  19.253  0.00  0.00    -0.251 OA
BRANCH  23  25
ATOM     25  O   UNL     1     -29.883  -8.400  20.142  0.00  0.00    -0.480 OA
ATOM     26  H   UNL     1     -28.894  -8.613  20.094  0.00  0.00    +0.295 HD
ENDBRANCH  23  25
ENDBRANCH  16  23
ENDBRANCH  15  16
ENDBRANCH   3  15
TORSDOF 8
ENDMDL
MODEL 3
REMARK VINA RESULT:    -4.529      1.993      3.613
REMARK INTER + INTRA:          -8.949
REMARK INTER:                  -6.718
REMARK INTRA:                  -2.231
REMARK UNBOUND:                -2.434
REMARK  Name = 
REMARK  10 active torsions:
REMARK  status: ('A' for Active; 'I' for Inactive)
REMARK    1  A    between atoms: C_1  and  C_2
REMARK    2  A    between atoms: C_2  and  C_3
REMARK    3  A    between atoms: C_2  and  O_4
REMARK    4  A    between atoms: O_4  and  C_5
REMARK    5  A    between atoms: C_10  and  C_11
REMARK    6  A    between atoms: N_13  and  C_14
REMARK    7  A    between atoms: C_14  and  C_15
REMARK    8  A    between atoms: C_15  and  C_16
REMARK    9  A    between atoms: C_15  and  C_19
REMARK   10  A    between atoms: C_16  and  O_18
REMARK                            x       y       z     vdW  Elec       q    Type
REMARK                         _______ _______ _______ _____ _____    ______ ____
ROOT
ATOM      1  C   UNL     1     -30.673 -10.265  16.387  0.00  0.00    +0.248 C 
ATOM      2  O   UNL     1     -30.495  -9.024  16.536  0.00  0.00    -0.270 OA
ATOM      3  N   UNL     1     -29.803 -11.192  17.053  0.00  0.00    -0.310 N 
ATOM      4  H   UNL     1     -29.867 -12.208  16.815  0.00  0.00    +0.149 HD
ENDROOT
BRANCH   1  10
ATOM      5  C   UNL     1     -31.629 -11.946  14.759  0.00  0.00    +0.133 A 
ATOM      6  C   UNL     1     -32.676 -12.332  13.895  0.00  0.00    +0.046 A 
ATOM      7  C   UNL     1     -33.821 -11.543  13.770  0.00  0.00    +0.004 A 
ATOM      8  C   UNL     1     -33.944 -10.366  14.504  0.00  0.00    +0.001 A 
ATOM      9  C   UNL     1     -32.917  -9.966  15.360  0.00  0.00    +0.017 A 
ATOM     10  C   UNL     1     -31.747 -10.737  15.484  0.00  0.00    +0.078 A 
BRANCH   5  11
ATOM     11  O   UNL     1     -30.489 -12.747  14.949  0.00  0.00    -0.489 OA
BRANCH  11  13
ATOM     12  C   UNL     1     -30.958 -14.584  16.426  0.00  0.00    +0.051 C 
ATOM     13  C   UNL     1     -30.468 -14.174  15.040  0.00  0.00    +0.167 C 
ATOM     14  C   UNL     1     -29.048 -14.699  14.805  0.00  0.00    +0.051 C 
ENDBRANCH  11  13
ENDBRANCH   5  11
ENDBRANCH   1  10
BRANCH   3  15
ATOM     15  C   UNL     1     -28.767 -10.730  17.978  0.00  0.00    +0.119 C 
BRANCH  15  16
ATOM     16  C   UNL     1     -28.680 -11.634  19.228  0.00  0.00    +0.118 C 
BRANCH  16  17
ATOM     17  C   UNL     1     -29.938 -11.490  20.135  0.00  0.00    +0.009 C 
ATOM     18  C   UNL     1     -31.157 -12.222  19.542  0.00  0.00    +0.032 C 
ATOM     19  C   UNL     1     -32.380 -12.019  20.446  0.00  0.00    +0.160 C 
ATOM     20  O   UNL     1     -32.669 -10.642  20.602  0.00  0.00    -0.380 OA
ATOM     21  C   UNL     1     -31.609  -9.999  21.286  0.00  0.00    +0.160 C 
ATOM     22  C   UNL     1     -30.320 -10.030  20.454  0.00  0.00    +0.032 C 
ENDBRANCH  16  17
BRANCH  16  23
ATOM     23  C   UNL     1     -28.403 -13.066  18.840  0.00  0.00    +0.310 C 
ATOM     24  O   UNL     1     -27.981 -13.330  17.682  0.00  0.00    -0.251 OA
BRANCH  23  25
ATOM     25  O   UNL     1     -28.589 -14.098  19.756  0.00  0.00    -0.480 OA
ATOM     26  H   UNL     1     -27.853 -14.361  20.401  0.00  0.00    +0.295 HD
ENDBRANCH  23  25
ENDBRANCH  16  23
ENDBRANCH  15  16
ENDBRANCH   3  15
TORSDOF 8
ENDMDL
MODEL 4
REMARK VINA RESULT:    -4.522      2.043      4.231
REMARK INTER + INTRA:          -8.938
REMARK INTER:                  -6.978
REMARK INTRA:                  -1.961
REMARK UNBOUND:                -2.434
REMARK  Name = 
REMARK  10 active torsions:
REMARK  status: ('A' for Active; 'I' for Inactive)
REMARK    1  A    between atoms: C_1  and  C_2
REMARK    2  A    between atoms: C_2  and  C_3
REMARK    3  A    between atoms: C_2  and  O_4
REMARK    4  A    between atoms: O_4  and  C_5
REMARK    5  A    between atoms: C_10  and  C_11
REMARK    6  A    between atoms: N_13  and  C_14
REMARK    7  A    between atoms: C_14  and  C_15
REMARK    8  A    between atoms: C_15  and  C_16
REMARK    9  A    between atoms: C_15  and  C_19
REMARK   10  A    between atoms: C_16  and  O_18
REMARK                            x       y       z     vdW  Elec       q    Type
REMARK                         _______ _______ _______ _____ _____    ______ ____
ROOT
ATOM      1  C   UNL     1     -29.553 -13.979  16.130  0.00  0.00    +0.248 C 
ATOM      2  O   UNL     1     -28.358 -14.294  16.386  0.00  0.00    -0.270 OA
ATOM      3  N   UNL     1     -30.429 -13.586  17.196  0.00  0.00    -0.310 N 
ATOM      4  H   UNL     1     -31.449 -13.464  16.997  0.00  0.00    +0.149 HD
ENDROOT
BRANCH   1  10
ATOM      5  C   UNL     1     -31.144 -13.309  14.282  0.00  0.00    +0.133 A 
ATOM      6  C   UNL     1     -31.579 -13.458  12.948  0.00  0.00    +0.046 A 
ATOM      7  C   UNL     1     -30.920 -14.330  12.080  0.00  0.00    +0.004 A 
ATOM      8  C   UNL     1     -29.819 -15.061  12.522  0.00  0.00    +0.001 A 
ATOM      9  C   UNL     1     -29.379 -14.930  13.839  0.00  0.00    +0.017 A 
ATOM     10  C   UNL     1     -30.041 -14.071  14.735  0.00  0.00    +0.078 A 
BRANCH   5  11
ATOM     11  O   UNL     1     -31.751 -12.397  15.164  0.00  0.00    -0.489 OA
BRANCH  11  13
ATOM     12  C   UNL     1     -31.249 -10.171  15.919  0.00  0.00    +0.051 C 
ATOM     13  C   UNL     1     -32.010 -11.016  14.900  0.00  0.00    +0.167 C 
ATOM     14  C   UNL     1     -33.512 -10.731  14.995  0.00  0.00    +0.051 C 
ENDBRANCH  11  13
ENDBRANCH   5  11
ENDBRANCH   1  10
BRANCH   3  15
ATOM     15  C   UNL     1     -29.940 -13.454  18.570  0.00  0.00    +0.119 C 
BRANCH  15  16
ATOM     16  C   UNL     1     -29.140 -12.146  18.762  0.00  0.00    +0.118 C 
BRANCH  16  17
ATOM     17  C   UNL     1     -29.753 -11.251  19.880  0.00  0.00    +0.009 C 
ATOM     18  C   UNL     1     -31.019 -11.884  20.488  0.00  0.00    +0.032 C 
ATOM     19  C   UNL     1     -31.611 -10.951  21.553  0.00  0.00    +0.160 C 
ATOM     20  O   UNL     1     -31.918  -9.685  20.999  0.00  0.00    -0.380 OA
ATOM     21  C   UNL     1     -30.730  -9.038  20.579  0.00  0.00    +0.160 C 
ATOM     22  C   UNL     1     -30.064  -9.808  19.431  0.00  0.00    +0.032 C 
ENDBRANCH  16  17
BRANCH  16  23
ATOM     23  C   UNL     1     -27.675 -12.438  18.987  0.00  0.00    +0.310 C 
ATOM     24  O   UNL     1     -26.856 -11.486  19.095  0.00  0.00    -0.251 OA
BRANCH  23  25
ATOM     25  O   UNL     1     -27.223 -13.750  19.100  0.00  0.00    -0.480 OA
ATOM     26  H   UNL     1     -26.453 -13.985  19.714  0.00  0.00    +0.295 HD
ENDBRANCH  23  25
ENDBRANCH  16  23
ENDBRANCH  15  16
ENDBRANCH   3  15
TORSDOF 8
ENDMDL
MODEL 5
REMARK VINA RESULT:    -4.488      1.876      3.122
REMARK INTER + INTRA:          -8.889
REMARK INTER:                  -6.766
REMARK INTRA:                  -2.123
REMARK UNBOUND:                -2.434
REMARK  Name = 
REMARK  10 active torsions:
REMARK  status: ('A' for Active; 'I' for Inactive)
REMARK    1  A    between atoms: C_1  and  C_2
REMARK    2  A    between atoms: C_2  and  C_3
REMARK    3  A    between atoms: C_2  and  O_4
REMARK    4  A    between atoms: O_4  and  C_5
REMARK    5  A    between atoms: C_10  and  C_11
REMARK    6  A    between atoms: N_13  and  C_14
REMARK    7  A    between atoms: C_14  and  C_15
REMARK    8  A    between atoms: C_15  and  C_16
REMARK    9  A    between atoms: C_15  and  C_19
REMARK   10  A    between atoms: C_16  and  O_18
REMARK                            x       y       z     vdW  Elec       q    Type
REMARK                         _______ _______ _______ _____ _____    ______ ____
ROOT
ATOM      1  C   UNL     1     -31.391 -11.168  15.468  0.00  0.00    +0.248 C 
ATOM      2  O   UNL     1     -31.381  -9.914  15.609  0.00  0.00    -0.270 OA
ATOM      3  N   UNL     1     -30.594 -11.988  16.336  0.00  0.00    -0.310 N 
ATOM      4  H   UNL     1     -30.498 -13.007  16.125  0.00  0.00    +0.149 HD
ENDROOT
BRANCH   1  10
ATOM      5  C   UNL     1     -31.661 -12.781  13.539  0.00  0.00    +0.133 A 
ATOM      6  C   UNL     1     -32.459 -13.293  12.495  0.00  0.00    +0.046 A 
ATOM      7  C   UNL     1     -33.758 -12.822  12.297  0.00  0.00    +0.004 A 
ATOM      8  C   UNL     1     -34.282 -11.840  13.135  0.00  0.00    +0.001 A 
ATOM      9  C   UNL     1     -33.505 -11.318  14.169  0.00  0.00    +0.017 A 
ATOM     10  C   UNL     1     -32.188 -11.766  14.373  0.00  0.00    +0.078 A 
BRANCH   5  11
ATOM     11  O   UNL     1     -30.370 -13.275  13.799  0.00  0.00    -0.489 OA
BRANCH  11  13
ATOM     12  C   UNL     1     -29.534 -15.062  15.172  0.00  0.00    +0.051 C 
ATOM     13  C   UNL     1     -29.973 -14.648  13.770  0.00  0.00    +0.167 C 
ATOM     14  C   UNL     1     -28.823 -14.845  12.777  0.00  0.00    +0.051 C 
ENDBRANCH  11  13
ENDBRANCH   5  11
ENDBRANCH   1  10
BRANCH   3  15
ATOM     15  C   UNL     1     -29.838 -11.404  17.446  0.00  0.00    +0.119 C 
BRANCH  15  16
ATOM     16  C   UNL     1     -30.304 -11.968  18.807  0.00  0.00    +0.118 C 
BRANCH  16  17
ATOM     17  C   UNL     1     -30.816 -10.844  19.756  0.00  0.00    +0.009 C 
ATOM     18  C   UNL     1     -30.637  -9.446  19.133  0.00  0.00    +0.032 C 
ATOM     19  C   UNL     1     -31.114  -8.370  20.117  0.00  0.00    +0.160 C 
ATOM     20  O   UNL     1     -30.404  -8.453  21.339  0.00  0.00    -0.380 OA
ATOM     21  C   UNL     1     -30.691  -9.680  21.985  0.00  0.00    +0.160 C 
ATOM     22  C   UNL     1     -30.177 -10.867  21.160  0.00  0.00    +0.032 C 
ENDBRANCH  16  17
BRANCH  16  23
ATOM     23  C   UNL     1     -31.316 -13.073  18.615  0.00  0.00    +0.310 C 
ATOM     24  O   UNL     1     -32.502 -12.787  18.299  0.00  0.00    -0.251 OA
BRANCH  23  25
ATOM     25  O   UNL     1     -30.944 -14.407  18.761  0.00  0.00    -0.480 OA
ATOM     26  H   UNL     1     -30.867 -14.829  19.678  0.00  0.00    +0.295 HD
ENDBRANCH  23  25
ENDBRANCH  16  23
ENDBRANCH  15  16
ENDBRANCH   3  15
TORSDOF 8
ENDMDL
MODEL 6
REMARK VINA RESULT:    -4.475      1.859      3.544
REMARK INTER + INTRA:          -8.871
REMARK INTER:                  -6.241
REMARK INTRA:                  -2.630
REMARK UNBOUND:                -2.434
REMARK  Name = 
REMARK  10 active torsions:
REMARK  status: ('A' for Active; 'I' for Inactive)
REMARK    1  A    between atoms: C_1  and  C_2
REMARK    2  A    between atoms: C_2  and  C_3
REMARK    3  A    between atoms: C_2  and  O_4
REMARK    4  A    between atoms: O_4  and  C_5
REMARK    5  A    between atoms: C_10  and  C_11
REMARK    6  A    between atoms: N_13  and  C_14
REMARK    7  A    between atoms: C_14  and  C_15
REMARK    8  A    between atoms: C_15  and  C_16
REMARK    9  A    between atoms: C_15  and  C_19
REMARK   10  A    between atoms: C_16  and  O_18
REMARK                            x       y       z     vdW  Elec       q    Type
REMARK                         _______ _______ _______ _____ _____    ______ ____
ROOT
ATOM      1  C   UNL     1     -31.256 -13.278  14.978  0.00  0.00    +0.248 C 
ATOM      2  O   UNL     1     -30.107 -13.492  14.502  0.00  0.00    -0.270 OA
ATOM      3  N   UNL     1     -31.539 -13.632  16.340  0.00  0.00    -0.310 N 
ATOM      4  H   UNL     1     -32.525 -13.582  16.683  0.00  0.00    +0.149 HD
ENDROOT
BRANCH   1  10
ATOM      5  C   UNL     1     -33.171 -11.683  14.548  0.00  0.00    +0.133 A 
ATOM      6  C   UNL     1     -34.169 -11.201  13.676  0.00  0.00    +0.046 A 
ATOM      7  C   UNL     1     -34.293 -11.715  12.384  0.00  0.00    +0.004 A 
ATOM      8  C   UNL     1     -33.425 -12.710  11.940  0.00  0.00    +0.001 A 
ATOM      9  C   UNL     1     -32.435 -13.202  12.790  0.00  0.00    +0.017 A 
ATOM     10  C   UNL     1     -32.307 -12.711  14.102  0.00  0.00    +0.078 A 
BRANCH   5  11
ATOM     11  O   UNL     1     -32.985 -11.146  15.835  0.00  0.00    -0.489 OA
BRANCH  11  13
ATOM     12  C   UNL     1     -31.082  -9.805  16.432  0.00  0.00    +0.051 C 
ATOM     13  C   UNL     1     -32.580  -9.809  16.139  0.00  0.00    +0.167 C 
ATOM     14  C   UNL     1     -33.357  -9.283  17.349  0.00  0.00    +0.051 C 
ENDBRANCH  11  13
ENDBRANCH   5  11
ENDBRANCH   1  10
BRANCH   3  15
ATOM     15  C   UNL     1     -30.492 -14.153  17.220  0.00  0.00    +0.119 C 
BRANCH  15  16
ATOM     16  C   UNL     1     -30.625 -13.590  18.653  0.00  0.00    +0.118 C 
BRANCH  16  17
ATOM     17  C   UNL     1     -29.328 -12.860  19.112  0.00  0.00    +0.009 C 
ATOM     18  C   UNL     1     -28.492 -12.374  17.912  0.00  0.00    +0.032 C 
ATOM     19  C   UNL     1     -27.207 -11.700  18.409  0.00  0.00    +0.160 C 
ATOM     20  O   UNL     1     -26.445 -12.590  19.204  0.00  0.00    -0.380 OA
ATOM     21  C   UNL     1     -27.156 -12.915  20.385  0.00  0.00    +0.160 C 
ATOM     22  C   UNL     1     -28.437 -13.694  20.056  0.00  0.00    +0.032 C 
ENDBRANCH  16  17
BRANCH  16  23
ATOM     23  C   UNL     1     -31.856 -12.725  18.780  0.00  0.00    +0.310 C 
ATOM     24  O   UNL     1     -31.790 -11.628  19.398  0.00  0.00    -0.251 OA
BRANCH  23  25
ATOM     25  O   UNL     1     -33.061 -13.117  18.202  0.00  0.00    -0.480 OA
ATOM     26  H   UNL     1     -33.187 -14.058  17.850  0.00  0.00    +0.295 HD
ENDBRANCH  23  25
ENDBRANCH  16  23
ENDBRANCH  15  16
ENDBRANCH   3  15
TORSDOF 8
ENDMDL
MODEL 7
REMARK VINA RESULT:    -4.459      1.921      4.377
REMARK INTER + INTRA:          -8.847
REMARK INTER:                  -6.890
REMARK INTRA:                  -1.958
REMARK UNBOUND:                -2.434
REMARK  Name = 
REMARK  10 active torsions:
REMARK  status: ('A' for Active; 'I' for Inactive)
REMARK    1  A    between atoms: C_1  and  C_2
REMARK    2  A    between atoms: C_2  and  C_3
REMARK    3  A    between atoms: C_2  and  O_4
REMARK    4  A    between atoms: O_4  and  C_5
REMARK    5  A    between atoms: C_10  and  C_11
REMARK    6  A    between atoms: N_13  and  C_14
REMARK    7  A    between atoms: C_14  and  C_15
REMARK    8  A    between atoms: C_15  and  C_16
REMARK    9  A    between atoms: C_15  and  C_19
REMARK   10  A    between atoms: C_16  and  O_18
REMARK                            x       y       z     vdW  Elec       q    Type
REMARK                         _______ _______ _______ _____ _____    ______ ____
ROOT
ATOM      1  C   UNL     1     -30.848 -14.094  16.392  0.00  0.00    +0.248 C 
ATOM      2  O   UNL     1     -30.637 -14.922  17.321  0.00  0.00    -0.270 OA
ATOM      3  N   UNL     1     -31.767 -13.011  16.601  0.00  0.00    -0.310 N 
ATOM      4  H   UNL     1     -32.042 -12.415  15.787  0.00  0.00    +0.149 HD
ENDROOT
BRANCH   1  10
ATOM      5  C   UNL     1     -30.842 -14.014  13.865  0.00  0.00    +0.133 A 
ATOM      6  C   UNL     1     -30.162 -14.242  12.650  0.00  0.00    +0.046 A 
ATOM      7  C   UNL     1     -28.848 -14.713  12.649  0.00  0.00    +0.004 A 
ATOM      8  C   UNL     1     -28.191 -14.958  13.853  0.00  0.00    +0.001 A 
ATOM      9  C   UNL     1     -28.849 -14.743  15.064  0.00  0.00    +0.017 A 
ATOM     10  C   UNL     1     -30.180 -14.288  15.085  0.00  0.00    +0.078 A 
BRANCH   5  11
ATOM     11  O   UNL     1     -32.146 -13.487  13.899  0.00  0.00    -0.489 OA
BRANCH  11  13
ATOM     12  C   UNL     1     -33.313 -11.389  14.003  0.00  0.00    +0.051 C 
ATOM     13  C   UNL     1     -32.641 -12.414  13.094  0.00  0.00    +0.167 C 
ATOM     14  C   UNL     1     -33.644 -12.946  12.065  0.00  0.00    +0.051 C 
ENDBRANCH  11  13
ENDBRANCH   5  11
ENDBRANCH   1  10
BRANCH   3  15
ATOM     15  C   UNL     1     -32.397 -12.792  17.904  0.00  0.00    +0.119 C 
BRANCH  15  16
ATOM     16  C   UNL     1     -31.500 -11.942  18.832  0.00  0.00    +0.118 C 
BRANCH  16  17
ATOM     17  C   UNL     1     -32.154 -10.571  19.173  0.00  0.00    +0.009 C 
ATOM     18  C   UNL     1     -33.496 -10.380  18.441  0.00  0.00    +0.032 C 
ATOM     19  C   UNL     1     -34.082  -9.002  18.774  0.00  0.00    +0.160 C 
ATOM     20  O   UNL     1     -33.182  -7.971  18.415  0.00  0.00    -0.380 OA
ATOM     21  C   UNL     1     -32.007  -8.058  19.200  0.00  0.00    +0.160 C 
ATOM     22  C   UNL     1     -31.243  -9.355  18.903  0.00  0.00    +0.032 C 
ENDBRANCH  16  17
BRANCH  16  23
ATOM     23  C   UNL     1     -31.105 -12.723  20.063  0.00  0.00    +0.310 C 
ATOM     24  O   UNL     1     -31.058 -12.144  21.182  0.00  0.00    -0.251 OA
BRANCH  23  25
ATOM     25  O   UNL     1     -30.815 -14.082  19.978  0.00  0.00    -0.480 OA
ATOM     26  H   UNL     1     -29.896 -14.402  19.696  0.00  0.00    +0.295 HD
ENDBRANCH  23  25
ENDBRANCH  16  23
ENDBRANCH  15  16
ENDBRANCH   3  15
TORSDOF 8
ENDMDL
MODEL 8
REMARK VINA RESULT:    -4.438      1.572      3.538
REMARK INTER + INTRA:          -8.817
REMARK INTER:                  -6.837
REMARK INTRA:                  -1.980
REMARK UNBOUND:                -2.434
REMARK  Name = 
REMARK  10 active torsions:
REMARK  status: ('A' for Active; 'I' for Inactive)
REMARK    1  A    between atoms: C_1  and  C_2
REMARK    2  A    between atoms: C_2  and  C_3
REMARK    3  A    between atoms: C_2  and  O_4
REMARK    4  A    between atoms: O_4  and  C_5
REMARK    5  A    between atoms: C_10  and  C_11
REMARK    6  A    between atoms: N_13  and  C_14
REMARK    7  A    between atoms: C_14  and  C_15
REMARK    8  A    between atoms: C_15  and  C_16
REMARK    9  A    between atoms: C_15  and  C_19
REMARK   10  A    between atoms: C_16  and  O_18
REMARK                            x       y       z     vdW  Elec       q    Type
REMARK                         _______ _______ _______ _____ _____    ______ ____
ROOT
ATOM      1  C   UNL     1     -30.890 -13.656  17.214  0.00  0.00    +0.248 C 
ATOM      2  O   UNL     1     -31.180 -14.644  17.944  0.00  0.00    -0.270 OA
ATOM      3  N   UNL     1     -31.074 -12.324  17.713  0.00  0.00    -0.310 N 
ATOM      4  H   UNL     1     -30.966 -11.516  17.058  0.00  0.00    +0.149 HD
ENDROOT
BRANCH   1  10
ATOM      5  C   UNL     1     -31.159 -13.482  14.706  0.00  0.00    +0.133 A 
ATOM      6  C   UNL     1     -30.663 -13.760  13.415  0.00  0.00    +0.046 A 
ATOM      7  C   UNL     1     -29.443 -14.417  13.248  0.00  0.00    +0.004 A 
ATOM      8  C   UNL     1     -28.697 -14.801  14.361  0.00  0.00    +0.001 A 
ATOM      9  C   UNL     1     -29.174 -14.539  15.645  0.00  0.00    +0.017 A 
ATOM     10  C   UNL     1     -30.411 -13.896  15.833  0.00  0.00    +0.078 A 
BRANCH   5  11
ATOM     11  O   UNL     1     -32.357 -12.772  14.905  0.00  0.00    -0.489 OA
BRANCH  11  13
ATOM     12  C   UNL     1     -32.941 -10.451  15.120  0.00  0.00    +0.051 C 
ATOM     13  C   UNL     1     -32.792 -11.630  14.162  0.00  0.00    +0.167 C 
ATOM     14  C   UNL     1     -34.129 -11.924  13.475  0.00  0.00    +0.051 C 
ENDBRANCH  11  13
ENDBRANCH   5  11
ENDBRANCH   1  10
BRANCH   3  15
ATOM     15  C   UNL     1     -31.508 -12.084  19.091  0.00  0.00    +0.119 C 
BRANCH  15  16
ATOM     16  C   UNL     1     -30.557 -11.110  19.822  0.00  0.00    +0.118 C 
BRANCH  16  17
ATOM     17  C   UNL     1     -29.150 -11.736  20.052  0.00  0.00    +0.009 C 
ATOM     18  C   UNL     1     -28.257 -11.610  18.803  0.00  0.00    +0.032 C 
ATOM     19  C   UNL     1     -26.899 -12.276  19.061  0.00  0.00    +0.160 C 
ATOM     20  O   UNL     1     -27.063 -13.640  19.406  0.00  0.00    -0.380 OA
ATOM     21  C   UNL     1     -27.754 -13.748  20.637  0.00  0.00    +0.160 C 
ATOM     22  C   UNL     1     -29.185 -13.208  20.513  0.00  0.00    +0.032 C 
ENDBRANCH  16  17
BRANCH  16  23
ATOM     23  C   UNL     1     -30.493  -9.781  19.107  0.00  0.00    +0.310 C 
ATOM     24  O   UNL     1     -31.058  -9.644  17.989  0.00  0.00    -0.251 OA
BRANCH  23  25
ATOM     25  O   UNL     1     -29.834  -8.697  19.683  0.00  0.00    -0.480 OA
ATOM     26  H   UNL     1     -28.823  -8.666  19.727  0.00  0.00    +0.295 HD
ENDBRANCH  23  25
ENDBRANCH  16  23
ENDBRANCH  15  16
ENDBRANCH   3  15
TORSDOF 8
ENDMDL
MODEL 9
REMARK VINA RESULT:    -4.368      1.685      4.042
REMARK INTER + INTRA:          -8.717
REMARK INTER:                  -6.448
REMARK INTRA:                  -2.269
REMARK UNBOUND:                -2.434
REMARK  Name = 
REMARK  10 active torsions:
REMARK  status: ('A' for Active; 'I' for Inactive)
REMARK    1  A    between atoms: C_1  and  C_2
REMARK    2  A    between atoms: C_2  and  C_3
REMARK    3  A    between atoms: C_2  and  O_4
REMARK    4  A    between atoms: O_4  and  C_5
REMARK    5  A    between atoms: C_10  and  C_11
REMARK    6  A    between atoms: N_13  and  C_14
REMARK    7  A    between atoms: C_14  and  C_15
REMARK    8  A    between atoms: C_15  and  C_16
REMARK    9  A    between atoms: C_15  and  C_19
REMARK   10  A    between atoms: C_16  and  O_18
REMARK                            x       y       z     vdW  Elec       q    Type
REMARK                         _______ _______ _______ _____ _____    ______ ____
ROOT
ATOM      1  C   UNL     1     -30.909 -13.409  15.193  0.00  0.00    +0.248 C 
ATOM      2  O   UNL     1     -29.733 -13.625  14.788  0.00  0.00    -0.270 OA
ATOM      3  N   UNL     1     -31.243 -13.651  16.567  0.00  0.00    -0.310 N 
ATOM      4  H   UNL     1     -32.245 -13.606  16.862  0.00  0.00    +0.149 HD
ENDROOT
BRANCH   1  10
ATOM      5  C   UNL     1     -33.022 -12.144  14.621  0.00  0.00    +0.133 A 
ATOM      6  C   UNL     1     -33.982 -11.767  13.659  0.00  0.00    +0.046 A 
ATOM      7  C   UNL     1     -33.852 -12.172  12.329  0.00  0.00    +0.004 A 
ATOM      8  C   UNL     1     -32.766 -12.953  11.938  0.00  0.00    +0.001 A 
ATOM      9  C   UNL     1     -31.810 -13.340  12.877  0.00  0.00    +0.017 A 
ATOM     10  C   UNL     1     -31.934 -12.958  14.225  0.00  0.00    +0.078 A 
BRANCH   5  11
ATOM     11  O   UNL     1     -33.095 -11.705  15.955  0.00  0.00    -0.489 OA
BRANCH  11  13
ATOM     12  C   UNL     1     -32.282  -9.501  16.463  0.00  0.00    +0.051 C 
ATOM     13  C   UNL     1     -33.507 -10.408  16.393  0.00  0.00    +0.167 C 
ATOM     14  C   UNL     1     -34.174 -10.501  17.769  0.00  0.00    +0.051 C 
ENDBRANCH  11  13
ENDBRANCH   5  11
ENDBRANCH   1  10
BRANCH   3  15
ATOM     15  C   UNL     1     -30.222 -14.057  17.535  0.00  0.00    +0.119 C 
BRANCH  15  16
ATOM     16  C   UNL     1     -29.442 -12.840  18.079  0.00  0.00    +0.118 C 
BRANCH  16  17
ATOM     17  C   UNL     1     -30.371 -11.849  18.841  0.00  0.00    +0.009 C 
ATOM     18  C   UNL     1     -29.641 -10.539  19.195  0.00  0.00    +0.032 C 
ATOM     19  C   UNL     1     -30.580  -9.613  19.979  0.00  0.00    +0.160 C 
ATOM     20  O   UNL     1     -31.045 -10.245  21.157  0.00  0.00    -0.380 OA
ATOM     21  C   UNL     1     -31.845 -11.364  20.824  0.00  0.00    +0.160 C 
ATOM     22  C   UNL     1     -31.014 -12.440  20.113  0.00  0.00    +0.032 C 
ENDBRANCH  16  17
BRANCH  16  23
ATOM     23  C   UNL     1     -28.260 -13.284  18.908  0.00  0.00    +0.310 C 
ATOM     24  O   UNL     1     -27.163 -12.670  18.814  0.00  0.00    -0.251 OA
BRANCH  23  25
ATOM     25  O   UNL     1     -28.377 -14.352  19.794  0.00  0.00    -0.480 OA
ATOM     26  H   UNL     1     -27.836 -14.382  20.649  0.00  0.00    +0.295 HD
ENDBRANCH  23  25
ENDBRANCH  16  23
ENDBRANCH  15  16
ENDBRANCH   3  15
TORSDOF 8
ENDMDL
