MODEL 1
REMARK VINA RESULT:    -4.940      0.000      0.000
REMARK INTER + INTRA:          -6.423
REMARK INTER:                  -6.095
REMARK INTRA:                  -0.328
REMARK UNBOUND:                -0.328
REMARK  Name = 
REMARK  4 active torsions:
REMARK  status: ('A' for Active; 'I' for Inactive)
REMARK    1  A    between atoms: C_2  and  C_3
REMARK    2  A    between atoms: N_13  and  C_14
REMARK    3  A    between atoms: C_14  and  C_15
REMARK    4  A    between atoms: C_19  and  N_21
REMARK                            x       y       z     vdW  Elec       q    Type
REMARK                         _______ _______ _______ _____ _____    ______ ____
ROOT
ATOM      1  C   UNL     1     -27.272 -13.121  20.136  0.00  0.00    +0.052 A 
ATOM      2  C   UNL     1     -28.432 -13.626  20.739  0.00  0.00    +0.021 A 
ATOM      3  C   UNL     1     -29.692 -13.198  20.309  0.00  0.00    +0.029 A 
ATOM      4  C   UNL     1     -29.800 -12.263  19.275  0.00  0.00    +0.073 A 
ATOM      5  N   UNL     1     -31.024 -11.844  18.857  0.00  0.00    -0.232 NA
ATOM      6  C   UNL     1     -31.179 -10.933  17.857  0.00  0.00    +0.120 A 
ATOM      7  C   UNL     1     -30.039 -10.409  17.222  0.00  0.00    +0.044 A 
ATOM      8  C   UNL     1     -28.768 -10.818  17.631  0.00  0.00    +0.013 A 
ATOM      9  C   UNL     1     -28.635 -11.751  18.665  0.00  0.00    +0.002 A 
ATOM     10  C   UNL     1     -27.373 -12.184  19.099  0.00  0.00    +0.029 A 
ATOM     11  N   UNL     1     -32.511 -10.542  17.478  0.00  0.00    -0.325 N 
ATOM     12  H   UNL     1     -33.312 -11.041  17.927  0.00  0.00    +0.148 HD
ENDROOT
BRANCH   1  14
ATOM     13  N   UNL     1     -24.938 -13.922  20.941  0.00  0.00    -0.191 NA
ATOM     14  C   UNL     1     -25.978 -13.565  20.583  0.00  0.00    +0.099 C 
ENDBRANCH   1  14
BRANCH  11  15
ATOM     15  C   UNL     1     -32.827  -9.455  16.551  0.00  0.00    +0.138 C 
BRANCH  15  16
ATOM     16  C   UNL     1     -33.469  -9.992  15.299  0.00  0.00    -0.028 A 
ATOM     17  C   UNL     1     -34.474  -9.263  14.644  0.00  0.00    +0.005 A 
ATOM     18  C   UNL     1     -35.062  -9.764  13.482  0.00  0.00    +0.003 A 
ATOM     19  C   UNL     1     -34.649 -10.989  12.956  0.00  0.00    +0.033 A 
ATOM     20  C   UNL     1     -33.635 -11.730  13.587  0.00  0.00    +0.127 A 
ATOM     21  C   UNL     1     -33.047 -11.219  14.760  0.00  0.00    +0.038 A 
BRANCH  20  22
ATOM     22  N   UNL     1     -33.208 -12.991  13.041  0.00  0.00    +0.056 N 
ATOM     23  O   UNL     1     -32.030 -13.569  13.455  0.00  0.00    -0.126 OA
ATOM     24  O   UNL     1     -33.895 -13.580  12.181  0.00  0.00    -0.126 OA
ENDBRANCH  20  22
ENDBRANCH  15  16
ENDBRANCH  11  15
TORSDOF 4
ENDMDL
MODEL 2
REMARK VINA RESULT:    -4.469      1.579      2.282
REMARK INTER + INTRA:          -5.842
REMARK INTER:                  -5.810
REMARK INTRA:                  -0.032
REMARK UNBOUND:                -0.328
REMARK  Name = 
REMARK  4 active torsions:
REMARK  status: ('A' for Active; 'I' for Inactive)
REMARK    1  A    between atoms: C_2  and  C_3
REMARK    2  A    between atoms: N_13  and  C_14
REMARK    3  A    between atoms: C_14  and  C_15
REMARK    4  A    between atoms: C_19  and  N_21
REMARK                            x       y       z     vdW  Elec       q    Type
REMARK                         _______ _______ _______ _____ _____    ______ ____
ROOT
ATOM      1  C   UNL     1     -27.969 -13.029  20.076  0.00  0.00    +0.052 A 
ATOM      2  C   UNL     1     -27.224 -12.144  19.284  0.00  0.00    +0.021 A 
ATOM      3  C   UNL     1     -27.847 -11.412  18.269  0.00  0.00    +0.029 A 
ATOM      4  C   UNL     1     -29.219 -11.560  18.039  0.00  0.00    +0.073 A 
ATOM      5  N   UNL     1     -29.827 -10.851  17.051  0.00  0.00    -0.232 NA
ATOM      6  C   UNL     1     -31.159 -10.963  16.788  0.00  0.00    +0.120 A 
ATOM      7  C   UNL     1     -31.941 -11.835  17.566  0.00  0.00    +0.044 A 
ATOM      8  C   UNL     1     -31.345 -12.579  18.587  0.00  0.00    +0.013 A 
ATOM      9  C   UNL     1     -29.974 -12.449  18.834  0.00  0.00    +0.002 A 
ATOM     10  C   UNL     1     -29.343 -13.181  19.851  0.00  0.00    +0.029 A 
ATOM     11  N   UNL     1     -31.722 -10.178  15.723  0.00  0.00    -0.325 N 
ATOM     12  H   UNL     1     -31.102  -9.484  15.249  0.00  0.00    +0.148 HD
ENDROOT
BRANCH   1  14
ATOM     13  N   UNL     1     -26.801 -14.382  21.958  0.00  0.00    -0.191 NA
ATOM     14  C   UNL     1     -27.321 -13.780  21.120  0.00  0.00    +0.099 C 
ENDBRANCH   1  14
BRANCH  11  15
ATOM     15  C   UNL     1     -33.087 -10.323  15.214  0.00  0.00    +0.138 C 
BRANCH  15  16
ATOM     16  C   UNL     1     -33.134 -11.328  14.093  0.00  0.00    -0.028 A 
ATOM     17  C   UNL     1     -34.251 -11.399  13.246  0.00  0.00    +0.005 A 
ATOM     18  C   UNL     1     -34.286 -12.329  12.206  0.00  0.00    +0.003 A 
ATOM     19  C   UNL     1     -33.207 -13.189  11.995  0.00  0.00    +0.033 A 
ATOM     20  C   UNL     1     -32.073 -13.127  12.822  0.00  0.00    +0.127 A 
ATOM     21  C   UNL     1     -32.045 -12.187  13.870  0.00  0.00    +0.038 A 
BRANCH  20  22
ATOM     22  N   UNL     1     -30.961 -14.013  12.600  0.00  0.00    +0.056 N 
ATOM     23  O   UNL     1     -29.718 -13.716  13.110  0.00  0.00    -0.126 OA
ATOM     24  O   UNL     1     -31.103 -15.062  11.938  0.00  0.00    -0.126 OA
ENDBRANCH  20  22
ENDBRANCH  15  16
ENDBRANCH  11  15
TORSDOF 4
ENDMDL
MODEL 3
REMARK VINA RESULT:    -4.247      3.128      3.723
REMARK INTER + INTRA:          -5.568
REMARK INTER:                  -5.179
REMARK INTRA:                  -0.389
REMARK UNBOUND:                -0.328
REMARK  Name = 
REMARK  4 active torsions:
REMARK  status: ('A' for Active; 'I' for Inactive)
REMARK    1  A    between atoms: C_2  and  C_3
REMARK    2  A    between atoms: N_13  and  C_14
REMARK    3  A    between atoms: C_14  and  C_15
REMARK    4  A    between atoms: C_19  and  N_21
REMARK                            x       y       z     vdW  Elec       q    Type
REMARK                         _______ _______ _______ _____ _____    ______ ____
ROOT
ATOM      1  C   UNL     1     -27.418 -13.372  20.253  0.00  0.00    +0.052 A 
ATOM      2  C   UNL     1     -28.423 -13.370  21.230  0.00  0.00    +0.021 A 
ATOM      3  C   UNL     1     -29.760 -13.192  20.863  0.00  0.00    +0.029 A 
ATOM      4  C   UNL     1     -30.101 -13.013  19.519  0.00  0.00    +0.073 A 
ATOM      5  N   UNL     1     -31.401 -12.837  19.160  0.00  0.00    -0.232 NA
ATOM      6  C   UNL     1     -31.781 -12.657  17.865  0.00  0.00    +0.120 A 
ATOM      7  C   UNL     1     -30.802 -12.660  16.855  0.00  0.00    +0.044 A 
ATOM      8  C   UNL     1     -29.458 -12.836  17.192  0.00  0.00    +0.013 A 
ATOM      9  C   UNL     1     -29.093 -13.015  18.531  0.00  0.00    +0.002 A 
ATOM     10  C   UNL     1     -27.752 -13.194  18.904  0.00  0.00    +0.029 A 
ATOM     11  N   UNL     1     -33.177 -12.475  17.573  0.00  0.00    -0.325 N 
ATOM     12  H   UNL     1     -33.857 -12.578  18.359  0.00  0.00    +0.148 HD
ENDROOT
BRANCH   1  14
ATOM     13  N   UNL     1     -24.938 -13.705  20.944  0.00  0.00    -0.191 NA
ATOM     14  C   UNL     1     -26.042 -13.556  20.636  0.00  0.00    +0.099 C 
ENDBRANCH   1  14
BRANCH  11  15
ATOM     15  C   UNL     1     -33.711 -12.099  16.263  0.00  0.00    +0.138 C 
BRANCH  15  16
ATOM     16  C   UNL     1     -34.086 -10.640  16.240  0.00  0.00    -0.028 A 
ATOM     17  C   UNL     1     -34.349  -9.991  15.023  0.00  0.00    +0.005 A 
ATOM     18  C   UNL     1     -34.701  -8.641  15.008  0.00  0.00    +0.003 A 
ATOM     19  C   UNL     1     -34.803  -7.928  16.204  0.00  0.00    +0.033 A 
ATOM     20  C   UNL     1     -34.557  -8.560  17.434  0.00  0.00    +0.127 A 
ATOM     21  C   UNL     1     -34.202  -9.923  17.442  0.00  0.00    +0.038 A 
BRANCH  20  22
ATOM     22  N   UNL     1     -34.667  -7.823  18.666  0.00  0.00    +0.056 N 
ATOM     23  O   UNL     1     -34.365  -8.422  19.868  0.00  0.00    -0.126 OA
ATOM     24  O   UNL     1     -35.041  -6.631  18.666  0.00  0.00    -0.126 OA
ENDBRANCH  20  22
ENDBRANCH  15  16
ENDBRANCH  11  15
TORSDOF 4
ENDMDL
MODEL 4
REMARK VINA RESULT:    -3.930      4.821      6.869
REMARK INTER + INTRA:          -5.177
REMARK INTER:                  -4.792
REMARK INTRA:                  -0.386
REMARK UNBOUND:                -0.328
REMARK  Name = 
REMARK  4 active torsions:
REMARK  status: ('A' for Active; 'I' for Inactive)
REMARK    1  A    between atoms: C_2  and  C_3
REMARK    2  A    between atoms: N_13  and  C_14
REMARK    3  A    between atoms: C_14  and  C_15
REMARK    4  A    between atoms: C_19  and  N_21
REMARK                            x       y       z     vdW  Elec       q    Type
REMARK                         _______ _______ _______ _____ _____    ______ ____
ROOT
ATOM      1  C   UNL     1     -29.154 -14.271  13.740  0.00  0.00    +0.052 A 
ATOM      2  C   UNL     1     -30.481 -13.998  13.383  0.00  0.00    +0.021 A 
ATOM      3  C   UNL     1     -31.397 -13.571  14.350  0.00  0.00    +0.029 A 
ATOM      4  C   UNL     1     -30.991 -13.415  15.679  0.00  0.00    +0.073 A 
ATOM      5  N   UNL     1     -31.880 -13.002  16.622  0.00  0.00    -0.232 NA
ATOM      6  C   UNL     1     -31.533 -12.838  17.928  0.00  0.00    +0.120 A 
ATOM      7  C   UNL     1     -30.208 -13.096  18.324  0.00  0.00    +0.044 A 
ATOM      8  C   UNL     1     -29.272 -13.524  17.380  0.00  0.00    +0.013 A 
ATOM      9  C   UNL     1     -29.655 -13.689  16.044  0.00  0.00    +0.002 A 
ATOM     10  C   UNL     1     -28.741 -14.117  15.070  0.00  0.00    +0.029 A 
ATOM     11  N   UNL     1     -32.536 -12.401  18.861  0.00  0.00    -0.325 N 
ATOM     12  H   UNL     1     -33.474 -12.139  18.481  0.00  0.00    +0.148 HD
ENDROOT
BRANCH   1  14
ATOM     13  N   UNL     1     -27.462 -15.062  11.938  0.00  0.00    -0.191 NA
ATOM     14  C   UNL     1     -28.216 -14.710  12.741  0.00  0.00    +0.099 C 
ENDBRANCH   1  14
BRANCH  11  15
ATOM     15  C   UNL     1     -32.358 -12.351  20.313  0.00  0.00    +0.138 C 
BRANCH  15  16
ATOM     16  C   UNL     1     -32.704 -10.985  20.845  0.00  0.00    -0.028 A 
ATOM     17  C   UNL     1     -33.906 -10.775  21.540  0.00  0.00    +0.005 A 
ATOM     18  C   UNL     1     -34.219  -9.508  22.036  0.00  0.00    +0.003 A 
ATOM     19  C   UNL     1     -33.336  -8.443  21.852  0.00  0.00    +0.033 A 
ATOM     20  C   UNL     1     -32.121  -8.633  21.171  0.00  0.00    +0.127 A 
ATOM     21  C   UNL     1     -31.812  -9.914  20.673  0.00  0.00    +0.038 A 
BRANCH  20  22
ATOM     22  N   UNL     1     -31.210  -7.534  20.986  0.00  0.00    +0.056 N 
ATOM     23  O   UNL     1     -31.484  -6.300  21.529  0.00  0.00    -0.126 OA
ATOM     24  O   UNL     1     -30.158  -7.680  20.329  0.00  0.00    -0.126 OA
ENDBRANCH  20  22
ENDBRANCH  15  16
ENDBRANCH  11  15
TORSDOF 4
ENDMDL
MODEL 5
REMARK VINA RESULT:    -3.853      3.452      5.331
REMARK INTER + INTRA:          -5.082
REMARK INTER:                  -4.676
REMARK INTRA:                  -0.405
REMARK UNBOUND:                -0.328
REMARK  Name = 
REMARK  4 active torsions:
REMARK  status: ('A' for Active; 'I' for Inactive)
REMARK    1  A    between atoms: C_2  and  C_3
REMARK    2  A    between atoms: N_13  and  C_14
REMARK    3  A    between atoms: C_14  and  C_15
REMARK    4  A    between atoms: C_19  and  N_21
REMARK                            x       y       z     vdW  Elec       q    Type
REMARK                         _______ _______ _______ _____ _____    ______ ____
ROOT
ATOM      1  C   UNL     1     -31.588  -7.444  20.212  0.00  0.00    +0.052 A 
ATOM      2  C   UNL     1     -32.817  -7.686  19.584  0.00  0.00    +0.021 A 
ATOM      3  C   UNL     1     -33.039  -8.891  18.912  0.00  0.00    +0.029 A 
ATOM      4  C   UNL     1     -32.034  -9.863  18.864  0.00  0.00    +0.073 A 
ATOM      5  N   UNL     1     -32.247 -11.035  18.209  0.00  0.00    -0.232 NA
ATOM      6  C   UNL     1     -31.299 -12.010  18.133  0.00  0.00    +0.120 A 
ATOM      7  C   UNL     1     -30.055 -11.808  18.758  0.00  0.00    +0.044 A 
ATOM      8  C   UNL     1     -29.805 -10.613  19.436  0.00  0.00    +0.013 A 
ATOM      9  C   UNL     1     -30.795  -9.625  19.496  0.00  0.00    +0.002 A 
ATOM     10  C   UNL     1     -30.577  -8.414  20.169  0.00  0.00    +0.029 A 
ATOM     11  N   UNL     1     -31.606 -13.219  17.418  0.00  0.00    -0.325 N 
ATOM     12  H   UNL     1     -32.580 -13.340  17.059  0.00  0.00    +0.148 HD
ENDROOT
BRANCH   1  14
ATOM     13  N   UNL     1     -31.185  -5.202  21.458  0.00  0.00    -0.191 NA
ATOM     14  C   UNL     1     -31.365  -6.201  20.903  0.00  0.00    +0.099 C 
ENDBRANCH   1  14
BRANCH  11  15
ATOM     15  C   UNL     1     -30.636 -14.270  17.105  0.00  0.00    +0.138 C 
BRANCH  15  16
ATOM     16  C   UNL     1     -30.335 -14.294  15.629  0.00  0.00    -0.028 A 
ATOM     17  C   UNL     1     -29.145 -14.868  15.154  0.00  0.00    +0.005 A 
ATOM     18  C   UNL     1     -28.874 -14.892  13.785  0.00  0.00    +0.003 A 
ATOM     19  C   UNL     1     -29.788 -14.353  12.878  0.00  0.00    +0.033 A 
ATOM     20  C   UNL     1     -30.990 -13.785  13.330  0.00  0.00    +0.127 A 
ATOM     21  C   UNL     1     -31.258 -13.764  14.712  0.00  0.00    +0.038 A 
BRANCH  20  22
ATOM     22  N   UNL     1     -31.933 -13.233  12.392  0.00  0.00    +0.056 N 
ATOM     23  O   UNL     1     -33.018 -13.970  11.976  0.00  0.00    -0.126 OA
ATOM     24  O   UNL     1     -31.781 -12.080  11.938  0.00  0.00    -0.126 OA
ENDBRANCH  20  22
ENDBRANCH  15  16
ENDBRANCH  11  15
TORSDOF 4
ENDMDL
MODEL 6
REMARK VINA RESULT:    -3.629      4.713      6.577
REMARK INTER + INTRA:          -4.805
REMARK INTER:                  -4.628
REMARK INTRA:                  -0.177
REMARK UNBOUND:                -0.328
REMARK  Name = 
REMARK  4 active torsions:
REMARK  status: ('A' for Active; 'I' for Inactive)
REMARK    1  A    between atoms: C_2  and  C_3
REMARK    2  A    between atoms: N_13  and  C_14
REMARK    3  A    between atoms: C_14  and  C_15
REMARK    4  A    between atoms: C_19  and  N_21
REMARK                            x       y       z     vdW  Elec       q    Type
REMARK                         _______ _______ _______ _____ _____    ______ ____
ROOT
ATOM      1  C   UNL     1     -30.025 -14.237  14.385  0.00  0.00    +0.052 A 
ATOM      2  C   UNL     1     -28.927 -14.261  15.255  0.00  0.00    +0.021 A 
ATOM      3  C   UNL     1     -29.064 -13.819  16.574  0.00  0.00    +0.029 A 
ATOM      4  C   UNL     1     -30.300 -13.350  17.031  0.00  0.00    +0.073 A 
ATOM      5  N   UNL     1     -30.436 -12.917  18.313  0.00  0.00    -0.232 NA
ATOM      6  C   UNL     1     -31.618 -12.449  18.802  0.00  0.00    +0.120 A 
ATOM      7  C   UNL     1     -32.745 -12.416  17.962  0.00  0.00    +0.044 A 
ATOM      8  C   UNL     1     -32.636 -12.852  16.639  0.00  0.00    +0.013 A 
ATOM      9  C   UNL     1     -31.409 -13.324  16.159  0.00  0.00    +0.002 A 
ATOM     10  C   UNL     1     -31.266 -13.769  14.836  0.00  0.00    +0.029 A 
ATOM     11  N   UNL     1     -31.673 -12.008  20.170  0.00  0.00    -0.325 N 
ATOM     12  H   UNL     1     -30.824 -12.147  20.763  0.00  0.00    +0.148 HD
ENDROOT
BRANCH   1  14
ATOM     13  N   UNL     1     -29.759 -15.062  11.938  0.00  0.00    -0.191 NA
ATOM     14  C   UNL     1     -29.877 -14.695  13.028  0.00  0.00    +0.099 C 
ENDBRANCH   1  14
BRANCH  11  15
ATOM     15  C   UNL     1     -32.816 -11.323  20.778  0.00  0.00    +0.138 C 
BRANCH  15  16
ATOM     16  C   UNL     1     -32.913  -9.905  20.280  0.00  0.00    -0.028 A 
ATOM     17  C   UNL     1     -33.979  -9.510  19.457  0.00  0.00    +0.005 A 
ATOM     18  C   UNL     1     -34.067  -8.193  19.003  0.00  0.00    +0.003 A 
ATOM     19  C   UNL     1     -33.100  -7.256  19.373  0.00  0.00    +0.033 A 
ATOM     20  C   UNL     1     -32.032  -7.626  20.207  0.00  0.00    +0.127 A 
ATOM     21  C   UNL     1     -31.949  -8.957  20.661  0.00  0.00    +0.038 A 
BRANCH  20  22
ATOM     22  N   UNL     1     -31.039  -6.657  20.591  0.00  0.00    +0.056 N 
ATOM     23  O   UNL     1     -31.410  -5.386  20.967  0.00  0.00    -0.126 OA
ATOM     24  O   UNL     1     -29.825  -6.951  20.586  0.00  0.00    -0.126 OA
ENDBRANCH  20  22
ENDBRANCH  15  16
ENDBRANCH  11  15
TORSDOF 4
ENDMDL
MODEL 7
REMARK VINA RESULT:    -3.555      4.302      6.505
REMARK INTER + INTRA:          -4.715
REMARK INTER:                  -4.244
REMARK INTRA:                  -0.470
REMARK UNBOUND:                -0.328
REMARK  Name = 
REMARK  4 active torsions:
REMARK  status: ('A' for Active; 'I' for Inactive)
REMARK    1  A    between atoms: C_2  and  C_3
REMARK    2  A    between atoms: N_13  and  C_14
REMARK    3  A    between atoms: C_14  and  C_15
REMARK    4  A    between atoms: C_19  and  N_21
REMARK                            x       y       z     vdW  Elec       q    Type
REMARK                         _______ _______ _______ _____ _____    ______ ____
ROOT
ATOM      1  C   UNL     1     -30.048 -14.260  14.391  0.00  0.00    +0.052 A 
ATOM      2  C   UNL     1     -28.981 -14.375  15.292  0.00  0.00    +0.021 A 
ATOM      3  C   UNL     1     -29.126 -13.945  16.614  0.00  0.00    +0.029 A 
ATOM      4  C   UNL     1     -30.339 -13.397  17.044  0.00  0.00    +0.073 A 
ATOM      5  N   UNL     1     -30.482 -12.976  18.329  0.00  0.00    -0.232 NA
ATOM      6  C   UNL     1     -31.643 -12.434  18.792  0.00  0.00    +0.120 A 
ATOM      7  C   UNL     1     -32.739 -12.309  17.920  0.00  0.00    +0.044 A 
ATOM      8  C   UNL     1     -32.622 -12.731  16.594  0.00  0.00    +0.013 A 
ATOM      9  C   UNL     1     -31.417 -13.280  16.140  0.00  0.00    +0.002 A 
ATOM     10  C   UNL     1     -31.266 -13.713  14.815  0.00  0.00    +0.029 A 
ATOM     11  N   UNL     1     -31.708 -12.012  20.165  0.00  0.00    -0.325 N 
ATOM     12  H   UNL     1     -30.889 -12.220  20.779  0.00  0.00    +0.148 HD
ENDROOT
BRANCH   1  14
ATOM     13  N   UNL     1     -29.767 -15.062  11.938  0.00  0.00    -0.191 NA
ATOM     14  C   UNL     1     -29.892 -14.705  13.030  0.00  0.00    +0.099 C 
ENDBRANCH   1  14
BRANCH  11  15
ATOM     15  C   UNL     1     -32.818 -11.259  20.752  0.00  0.00    +0.138 C 
BRANCH  15  16
ATOM     16  C   UNL     1     -32.592  -9.777  20.605  0.00  0.00    -0.028 A 
ATOM     17  C   UNL     1     -31.426  -9.180  21.109  0.00  0.00    +0.005 A 
ATOM     18  C   UNL     1     -31.220  -7.807  20.965  0.00  0.00    +0.003 A 
ATOM     19  C   UNL     1     -32.168  -7.018  20.310  0.00  0.00    +0.033 A 
ATOM     20  C   UNL     1     -33.336  -7.597  19.785  0.00  0.00    +0.127 A 
ATOM     21  C   UNL     1     -33.538  -8.983  19.935  0.00  0.00    +0.038 A 
BRANCH  20  22
ATOM     22  N   UNL     1     -34.310  -6.783  19.107  0.00  0.00    +0.056 N 
ATOM     23  O   UNL     1     -34.817  -7.170  17.888  0.00  0.00    -0.126 OA
ATOM     24  O   UNL     1     -34.708  -5.711  19.609  0.00  0.00    -0.126 OA
ENDBRANCH  20  22
ENDBRANCH  15  16
ENDBRANCH  11  15
TORSDOF 4
ENDMDL
