MODEL 1
REMARK VINA RESULT:    -4.624      0.000      0.000
REMARK INTER + INTRA:         -10.473
REMARK INTER:                  -6.922
REMARK INTRA:                  -3.551
REMARK UNBOUND:                -3.551
REMARK  Name = 
REMARK  10 active torsions:
REMARK  status: ('A' for Active; 'I' for Inactive)
REMARK    1  A    between atoms: C_1  and  N_2
REMARK    2  A    between atoms: N_2  and  C_3
REMARK    3  A    between atoms: C_3  and  C_4
REMARK    4  A    between atoms: C_4  and  C_5
REMARK    5  A    between atoms: C_5  and  C_6
REMARK    6  A    between atoms: C_12  and  C_14
REMARK    7  A    between atoms: C_19  and  C_20
REMARK    8  A    between atoms: C_20  and  C_21
REMARK    9  A    between atoms: C_21  and  C_22
REMARK   10  A    between atoms: C_22  and  O_24
REMARK                            x       y       z     vdW  Elec       q    Type
REMARK                         _______ _______ _______ _____ _____    ______ ____
ROOT
ATOM      1  C   UNL     1     -28.126 -13.264  20.680  0.00  0.00    +0.132 C 
ATOM      2  N   UNL     1     -29.167 -13.047  19.671  0.00  0.00    -0.301 N 
ATOM      3  C   UNL     1     -28.771 -12.657  18.340  0.00  0.00    +0.247 C 
ATOM      4  O   UNL     1     -27.613 -12.928  17.922  0.00  0.00    -0.270 OA
ENDROOT
BRANCH   3   5
ATOM      5  C   UNL     1     -29.682 -11.911  17.454  0.00  0.00    +0.040 A 
ATOM      6  C   UNL     1     -29.692 -10.510  17.523  0.00  0.00    +0.013 A 
ATOM      7  C   UNL     1     -30.524  -9.765  16.685  0.00  0.00    +0.001 A 
ATOM      8  C   UNL     1     -31.366 -10.414  15.781  0.00  0.00    +0.000 A 
ATOM      9  C   UNL     1     -31.391 -11.809  15.724  0.00  0.00    +0.004 A 
ATOM     10  C   UNL     1     -30.563 -12.576  16.563  0.00  0.00    -0.035 A 
BRANCH  10  11
ATOM     11  C   UNL     1     -30.662 -14.088  16.502  0.00  0.00    +0.047 C 
BRANCH  11  12
ATOM     12  C   UNL     1     -30.339 -14.653  15.112  0.00  0.00    +0.125 C 
BRANCH  12  13
ATOM     13  C   UNL     1     -28.870 -14.633  14.825  0.00  0.00    +0.305 C 
ATOM     14  O   UNL     1     -28.459 -14.515  13.640  0.00  0.00    -0.251 OA
BRANCH  13  15
ATOM     15  O   UNL     1     -27.958 -14.702  15.874  0.00  0.00    -0.481 OA
ATOM     16  H   UNL     1     -27.056 -15.144  15.750  0.00  0.00    +0.295 HD
ENDBRANCH  13  15
ENDBRANCH  12  13
ENDBRANCH  11  12
ENDBRANCH  10  11
ENDBRANCH   3   5
BRANCH   2  17
ATOM     17  C   UNL     1     -30.587 -13.197  20.036  0.00  0.00    +0.108 C 
BRANCH  17  18
ATOM     18  C   UNL     1     -31.101 -11.972  20.800  0.00  0.00    +0.024 C 
BRANCH  18  19
ATOM     19  C   UNL     1     -32.577 -11.681  20.504  0.00  0.00    +0.036 C 
BRANCH  19  20
ATOM     20  C   UNL     1     -32.740 -10.286  19.964  0.00  0.00    -0.047 A 
ATOM     21  C   UNL     1     -31.868  -9.261  20.367  0.00  0.00    +0.003 A 
ATOM     22  C   UNL     1     -32.000  -7.974  19.838  0.00  0.00    +0.000 A 
ATOM     23  C   UNL     1     -32.996  -7.703  18.895  0.00  0.00    +0.000 A 
ATOM     24  C   UNL     1     -33.858  -8.721  18.477  0.00  0.00    +0.000 A 
ATOM     25  C   UNL     1     -33.730 -10.009  19.004  0.00  0.00    +0.003 A 
ENDBRANCH  19  20
ENDBRANCH  18  19
ENDBRANCH  17  18
ENDBRANCH   2  17
TORSDOF 9
ENDMDL
MODEL 2
REMARK VINA RESULT:    -4.520      2.511      5.468
REMARK INTER + INTRA:         -10.317
REMARK INTER:                  -7.732
REMARK INTRA:                  -2.585
REMARK UNBOUND:                -3.551
REMARK  Name = 
REMARK  10 active torsions:
REMARK  status: ('A' for Active; 'I' for Inactive)
REMARK    1  A    between atoms: C_1  and  N_2
REMARK    2  A    between atoms: N_2  and  C_3
REMARK    3  A    between atoms: C_3  and  C_4
REMARK    4  A    between atoms: C_4  and  C_5
REMARK    5  A    between atoms: C_5  and  C_6
REMARK    6  A    between atoms: C_12  and  C_14
REMARK    7  A    between atoms: C_19  and  C_20
REMARK    8  A    between atoms: C_20  and  C_21
REMARK    9  A    between atoms: C_21  and  C_22
REMARK   10  A    between atoms: C_22  and  O_24
REMARK                            x       y       z     vdW  Elec       q    Type
REMARK                         _______ _______ _______ _____ _____    ______ ____
ROOT
ATOM      1  C   UNL     1     -33.126 -10.559  19.465  0.00  0.00    +0.132 C 
ATOM      2  N   UNL     1     -32.792 -11.580  18.468  0.00  0.00    -0.301 N 
ATOM      3  C   UNL     1     -31.812 -12.583  18.807  0.00  0.00    +0.247 C 
ATOM      4  O   UNL     1     -31.590 -12.864  20.015  0.00  0.00    -0.270 OA
ENDROOT
BRANCH   3   5
ATOM      5  C   UNL     1     -31.028 -13.276  17.768  0.00  0.00    +0.040 A 
ATOM      6  C   UNL     1     -31.616 -14.352  17.087  0.00  0.00    +0.013 A 
ATOM      7  C   UNL     1     -30.915 -15.020  16.081  0.00  0.00    +0.001 A 
ATOM      8  C   UNL     1     -29.616 -14.630  15.758  0.00  0.00    +0.000 A 
ATOM      9  C   UNL     1     -29.006 -13.582  16.449  0.00  0.00    +0.004 A 
ATOM     10  C   UNL     1     -29.694 -12.899  17.469  0.00  0.00    -0.035 A 
BRANCH  10  11
ATOM     11  C   UNL     1     -28.973 -11.801  18.227  0.00  0.00    +0.047 C 
BRANCH  11  12
ATOM     12  C   UNL     1     -27.743 -12.310  18.991  0.00  0.00    +0.125 C 
BRANCH  12  13
ATOM     13  C   UNL     1     -28.122 -13.151  20.169  0.00  0.00    +0.305 C 
ATOM     14  O   UNL     1     -28.528 -12.607  21.230  0.00  0.00    -0.251 OA
BRANCH  13  15
ATOM     15  O   UNL     1     -28.064 -14.539  20.077  0.00  0.00    -0.481 OA
ATOM     16  H   UNL     1     -27.846 -15.105  20.889  0.00  0.00    +0.295 HD
ENDBRANCH  13  15
ENDBRANCH  12  13
ENDBRANCH  11  12
ENDBRANCH  10  11
ENDBRANCH   3   5
BRANCH   2  17
ATOM     17  C   UNL     1     -33.429 -11.549  17.140  0.00  0.00    +0.108 C 
BRANCH  17  18
ATOM     18  C   UNL     1     -33.000 -10.312  16.342  0.00  0.00    +0.024 C 
BRANCH  18  19
ATOM     19  C   UNL     1     -31.938 -10.643  15.286  0.00  0.00    +0.036 C 
BRANCH  19  20
ATOM     20  C   UNL     1     -32.531 -11.488  14.191  0.00  0.00    -0.047 A 
ATOM     21  C   UNL     1     -33.847 -11.262  13.753  0.00  0.00    +0.003 A 
ATOM     22  C   UNL     1     -34.383 -12.026  12.712  0.00  0.00    +0.000 A 
ATOM     23  C   UNL     1     -33.608 -13.012  12.094  0.00  0.00    +0.000 A 
ATOM     24  C   UNL     1     -32.294 -13.232  12.514  0.00  0.00    +0.000 A 
ATOM     25  C   UNL     1     -31.753 -12.471  13.555  0.00  0.00    +0.003 A 
ENDBRANCH  19  20
ENDBRANCH  18  19
ENDBRANCH  17  18
ENDBRANCH   2  17
TORSDOF 9
ENDMDL
MODEL 3
REMARK VINA RESULT:    -4.227      2.734      4.406
REMARK INTER + INTRA:          -9.879
REMARK INTER:                  -7.330
REMARK INTRA:                  -2.548
REMARK UNBOUND:                -3.551
REMARK  Name = 
REMARK  10 active torsions:
REMARK  status: ('A' for Active; 'I' for Inactive)
REMARK    1  A    between atoms: C_1  and  N_2
REMARK    2  A    between atoms: N_2  and  C_3
REMARK    3  A    between atoms: C_3  and  C_4
REMARK    4  A    between atoms: C_4  and  C_5
REMARK    5  A    between atoms: C_5  and  C_6
REMARK    6  A    between atoms: C_12  and  C_14
REMARK    7  A    between atoms: C_19  and  C_20
REMARK    8  A    between atoms: C_20  and  C_21
REMARK    9  A    between atoms: C_21  and  C_22
REMARK   10  A    between atoms: C_22  and  O_24
REMARK                            x       y       z     vdW  Elec       q    Type
REMARK                         _______ _______ _______ _____ _____    ______ ____
ROOT
ATOM      1  C   UNL     1     -30.308 -13.214  19.126  0.00  0.00    +0.132 C 
ATOM      2  N   UNL     1     -30.152 -13.014  17.683  0.00  0.00    -0.301 N 
ATOM      3  C   UNL     1     -30.700 -14.001  16.784  0.00  0.00    +0.247 C 
ATOM      4  O   UNL     1     -31.647 -14.741  17.163  0.00  0.00    -0.270 OA
ENDROOT
BRANCH   3   5
ATOM      5  C   UNL     1     -30.156 -14.193  15.428  0.00  0.00    +0.040 A 
ATOM      6  C   UNL     1     -28.867 -14.730  15.289  0.00  0.00    +0.013 A 
ATOM      7  C   UNL     1     -28.324 -14.949  14.022  0.00  0.00    +0.001 A 
ATOM      8  C   UNL     1     -29.056 -14.618  12.882  0.00  0.00    +0.000 A 
ATOM      9  C   UNL     1     -30.327 -14.054  13.005  0.00  0.00    +0.004 A 
ATOM     10  C   UNL     1     -30.890 -13.821  14.273  0.00  0.00    -0.035 A 
BRANCH  10  11
ATOM     11  C   UNL     1     -32.251 -13.159  14.357  0.00  0.00    +0.047 C 
BRANCH  11  12
ATOM     12  C   UNL     1     -32.573 -12.295  13.130  0.00  0.00    +0.125 C 
BRANCH  12  13
ATOM     13  C   UNL     1     -33.843 -12.721  12.461  0.00  0.00    +0.305 C 
ATOM     14  O   UNL     1     -33.928 -13.864  11.939  0.00  0.00    -0.251 OA
BRANCH  13  15
ATOM     15  O   UNL     1     -34.942 -11.867  12.453  0.00  0.00    -0.481 OA
ATOM     16  H   UNL     1     -34.831 -10.876  12.630  0.00  0.00    +0.295 HD
ENDBRANCH  13  15
ENDBRANCH  12  13
ENDBRANCH  11  12
ENDBRANCH  10  11
ENDBRANCH   3   5
BRANCH   2  17
ATOM     17  C   UNL     1     -29.418 -11.841  17.178  0.00  0.00    +0.108 C 
BRANCH  17  18
ATOM     18  C   UNL     1     -30.124 -10.533  17.555  0.00  0.00    +0.024 C 
BRANCH  18  19
ATOM     19  C   UNL     1     -30.784  -9.861  16.344  0.00  0.00    +0.036 C 
BRANCH  19  20
ATOM     20  C   UNL     1     -32.279 -10.028  16.400  0.00  0.00    -0.047 A 
ATOM     21  C   UNL     1     -33.095  -9.451  15.413  0.00  0.00    +0.003 A 
ATOM     22  C   UNL     1     -34.481  -9.636  15.448  0.00  0.00    +0.000 A 
ATOM     23  C   UNL     1     -35.059 -10.407  16.462  0.00  0.00    +0.000 A 
ATOM     24  C   UNL     1     -34.251 -10.996  17.439  0.00  0.00    +0.000 A 
ATOM     25  C   UNL     1     -32.866 -10.813  17.408  0.00  0.00    +0.003 A 
ENDBRANCH  19  20
ENDBRANCH  18  19
ENDBRANCH  17  18
ENDBRANCH   2  17
TORSDOF 9
ENDMDL
MODEL 4
REMARK VINA RESULT:    -4.221      2.492      6.165
REMARK INTER + INTRA:          -9.869
REMARK INTER:                  -7.357
REMARK INTRA:                  -2.512
REMARK UNBOUND:                -3.551
REMARK  Name = 
REMARK  10 active torsions:
REMARK  status: ('A' for Active; 'I' for Inactive)
REMARK    1  A    between atoms: C_1  and  N_2
REMARK    2  A    between atoms: N_2  and  C_3
REMARK    3  A    between atoms: C_3  and  C_4
REMARK    4  A    between atoms: C_4  and  C_5
REMARK    5  A    between atoms: C_5  and  C_6
REMARK    6  A    between atoms: C_12  and  C_14
REMARK    7  A    between atoms: C_19  and  C_20
REMARK    8  A    between atoms: C_20  and  C_21
REMARK    9  A    between atoms: C_21  and  C_22
REMARK   10  A    between atoms: C_22  and  O_24
REMARK                            x       y       z     vdW  Elec       q    Type
REMARK                         _______ _______ _______ _____ _____    ______ ____
ROOT
ATOM      1  C   UNL     1     -29.040 -11.748  20.355  0.00  0.00    +0.132 C 
ATOM      2  N   UNL     1     -29.915 -11.727  19.179  0.00  0.00    -0.301 N 
ATOM      3  C   UNL     1     -29.885 -10.573  18.315  0.00  0.00    +0.247 C 
ATOM      4  O   UNL     1     -28.864  -9.834  18.285  0.00  0.00    -0.270 OA
ENDROOT
BRANCH   3   5
ATOM      5  C   UNL     1     -31.042 -10.208  17.477  0.00  0.00    +0.040 A 
ATOM      6  C   UNL     1     -30.981 -10.462  16.098  0.00  0.00    +0.013 A 
ATOM      7  C   UNL     1     -32.064 -10.152  15.274  0.00  0.00    +0.001 A 
ATOM      8  C   UNL     1     -33.211  -9.571  15.815  0.00  0.00    +0.000 A 
ATOM      9  C   UNL     1     -33.273  -9.284  17.180  0.00  0.00    +0.004 A 
ATOM     10  C   UNL     1     -32.190  -9.584  18.027  0.00  0.00    -0.035 A 
BRANCH  10  11
ATOM     11  C   UNL     1     -32.284  -9.206  19.492  0.00  0.00    +0.047 C 
BRANCH  11  12
ATOM     12  C   UNL     1     -32.248  -7.690  19.723  0.00  0.00    +0.125 C 
BRANCH  12  13
ATOM     13  C   UNL     1     -30.963  -7.247  20.351  0.00  0.00    +0.305 C 
ATOM     14  O   UNL     1     -30.885  -6.117  20.900  0.00  0.00    -0.251 OA
BRANCH  13  15
ATOM     15  O   UNL     1     -29.867  -8.105  20.363  0.00  0.00    -0.481 OA
ATOM     16  H   UNL     1     -29.868  -8.957  19.816  0.00  0.00    +0.295 HD
ENDBRANCH  13  15
ENDBRANCH  12  13
ENDBRANCH  11  12
ENDBRANCH  10  11
ENDBRANCH   3   5
BRANCH   2  17
ATOM     17  C   UNL     1     -30.824 -12.857  18.918  0.00  0.00    +0.108 C 
BRANCH  17  18
ATOM     18  C   UNL     1     -30.229 -13.830  17.894  0.00  0.00    +0.024 C 
BRANCH  18  19
ATOM     19  C   UNL     1     -31.243 -14.225  16.813  0.00  0.00    +0.036 C 
BRANCH  19  20
ATOM     20  C   UNL     1     -30.570 -14.312  15.469  0.00  0.00    -0.047 A 
ATOM     21  C   UNL     1     -31.221 -13.841  14.317  0.00  0.00    +0.003 A 
ATOM     22  C   UNL     1     -30.580 -13.891  13.075  0.00  0.00    +0.000 A 
ATOM     23  C   UNL     1     -29.283 -14.403  12.977  0.00  0.00    +0.000 A 
ATOM     24  C   UNL     1     -28.624 -14.861  14.121  0.00  0.00    +0.000 A 
ATOM     25  C   UNL     1     -29.261 -14.812  15.364  0.00  0.00    +0.003 A 
ENDBRANCH  19  20
ENDBRANCH  18  19
ENDBRANCH  17  18
ENDBRANCH   2  17
TORSDOF 9
ENDMDL
MODEL 5
REMARK VINA RESULT:    -4.111      2.895      5.706
REMARK INTER + INTRA:          -9.705
REMARK INTER:                  -7.164
REMARK INTRA:                  -2.541
REMARK UNBOUND:                -3.551
REMARK  Name = 
REMARK  10 active torsions:
REMARK  status: ('A' for Active; 'I' for Inactive)
REMARK    1  A    between atoms: C_1  and  N_2
REMARK    2  A    between atoms: N_2  and  C_3
REMARK    3  A    between atoms: C_3  and  C_4
REMARK    4  A    between atoms: C_4  and  C_5
REMARK    5  A    between atoms: C_5  and  C_6
REMARK    6  A    between atoms: C_12  and  C_14
REMARK    7  A    between atoms: C_19  and  C_20
REMARK    8  A    between atoms: C_20  and  C_21
REMARK    9  A    between atoms: C_21  and  C_22
REMARK   10  A    between atoms: C_22  and  O_24
REMARK                            x       y       z     vdW  Elec       q    Type
REMARK                         _______ _______ _______ _____ _____    ______ ____
ROOT
ATOM      1  C   UNL     1     -33.670 -10.592  19.389  0.00  0.00    +0.132 C 
ATOM      2  N   UNL     1     -33.186 -11.578  18.419  0.00  0.00    -0.301 N 
ATOM      3  C   UNL     1     -32.205 -12.546  18.845  0.00  0.00    +0.247 C 
ATOM      4  O   UNL     1     -32.101 -12.842  20.066  0.00  0.00    -0.270 OA
ENDROOT
BRANCH   3   5
ATOM      5  C   UNL     1     -31.285 -13.184  17.886  0.00  0.00    +0.040 A 
ATOM      6  C   UNL     1     -31.770 -14.220  17.076  0.00  0.00    +0.013 A 
ATOM      7  C   UNL     1     -30.937 -14.836  16.140  0.00  0.00    +0.001 A 
ATOM      8  C   UNL     1     -29.608 -14.432  16.015  0.00  0.00    +0.000 A 
ATOM      9  C   UNL     1     -29.103 -13.423  16.837  0.00  0.00    +0.004 A 
ATOM     10  C   UNL     1     -29.925 -12.794  17.790  0.00  0.00    -0.035 A 
BRANCH  10  11
ATOM     11  C   UNL     1     -29.318 -11.740  18.695  0.00  0.00    +0.047 C 
BRANCH  11  12
ATOM     12  C   UNL     1     -29.441 -10.320  18.127  0.00  0.00    +0.125 C 
BRANCH  12  13
ATOM     13  C   UNL     1     -30.142  -9.396  19.074  0.00  0.00    +0.305 C 
ATOM     14  O   UNL     1     -31.061  -8.642  18.656  0.00  0.00    -0.251 OA
BRANCH  13  15
ATOM     15  O   UNL     1     -29.806  -9.402  20.424  0.00  0.00    -0.481 OA
ATOM     16  H   UNL     1     -29.893 -10.245  20.978  0.00  0.00    +0.295 HD
ENDBRANCH  13  15
ENDBRANCH  12  13
ENDBRANCH  11  12
ENDBRANCH  10  11
ENDBRANCH   3   5
BRANCH   2  17
ATOM     17  C   UNL     1     -33.678 -11.546  17.030  0.00  0.00    +0.108 C 
BRANCH  17  18
ATOM     18  C   UNL     1     -33.186 -10.296  16.290  0.00  0.00    +0.024 C 
BRANCH  18  19
ATOM     19  C   UNL     1     -32.052 -10.613  15.308  0.00  0.00    +0.036 C 
BRANCH  19  20
ATOM     20  C   UNL     1     -32.564 -11.448  14.165  0.00  0.00    -0.047 A 
ATOM     21  C   UNL     1     -31.738 -12.412  13.564  0.00  0.00    +0.003 A 
ATOM     22  C   UNL     1     -32.227 -13.211  12.526  0.00  0.00    +0.000 A 
ATOM     23  C   UNL     1     -33.546 -13.059  12.087  0.00  0.00    +0.000 A 
ATOM     24  C   UNL     1     -34.378 -12.111  12.690  0.00  0.00    +0.000 A 
ATOM     25  C   UNL     1     -33.893 -11.311  13.729  0.00  0.00    +0.003 A 
ENDBRANCH  19  20
ENDBRANCH  18  19
ENDBRANCH  17  18
ENDBRANCH   2  17
TORSDOF 9
ENDMDL
MODEL 6
REMARK VINA RESULT:    -4.033      2.943      6.589
REMARK INTER + INTRA:          -9.589
REMARK INTER:                  -7.368
REMARK INTRA:                  -2.220
REMARK UNBOUND:                -3.551
REMARK  Name = 
REMARK  10 active torsions:
REMARK  status: ('A' for Active; 'I' for Inactive)
REMARK    1  A    between atoms: C_1  and  N_2
REMARK    2  A    between atoms: N_2  and  C_3
REMARK    3  A    between atoms: C_3  and  C_4
REMARK    4  A    between atoms: C_4  and  C_5
REMARK    5  A    between atoms: C_5  and  C_6
REMARK    6  A    between atoms: C_12  and  C_14
REMARK    7  A    between atoms: C_19  and  C_20
REMARK    8  A    between atoms: C_20  and  C_21
REMARK    9  A    between atoms: C_21  and  C_22
REMARK   10  A    between atoms: C_22  and  O_24
REMARK                            x       y       z     vdW  Elec       q    Type
REMARK                         _______ _______ _______ _____ _____    ______ ____
ROOT
ATOM      1  C   UNL     1     -29.532 -10.298  18.577  0.00  0.00    +0.132 C 
ATOM      2  N   UNL     1     -30.350 -10.945  17.547  0.00  0.00    -0.301 N 
ATOM      3  C   UNL     1     -30.767 -10.168  16.405  0.00  0.00    +0.247 C 
ATOM      4  O   UNL     1     -30.109  -9.150  16.061  0.00  0.00    -0.270 OA
ENDROOT
BRANCH   3   5
ATOM      5  C   UNL     1     -31.976 -10.517  15.637  0.00  0.00    +0.040 A 
ATOM      6  C   UNL     1     -31.833 -11.262  14.457  0.00  0.00    +0.013 A 
ATOM      7  C   UNL     1     -32.954 -11.631  13.713  0.00  0.00    +0.001 A 
ATOM      8  C   UNL     1     -34.228 -11.246  14.131  0.00  0.00    +0.000 A 
ATOM      9  C   UNL     1     -34.383 -10.478  15.286  0.00  0.00    +0.004 A 
ATOM     10  C   UNL     1     -33.265 -10.092  16.047  0.00  0.00    -0.035 A 
BRANCH  10  11
ATOM     11  C   UNL     1     -33.479  -9.214  17.265  0.00  0.00    +0.047 C 
BRANCH  11  12
ATOM     12  C   UNL     1     -34.173  -9.949  18.419  0.00  0.00    +0.125 C 
BRANCH  12  13
ATOM     13  C   UNL     1     -33.749  -9.424  19.755  0.00  0.00    +0.305 C 
ATOM     14  O   UNL     1     -32.533  -9.193  19.986  0.00  0.00    -0.251 OA
BRANCH  13  15
ATOM     15  O   UNL     1     -34.706  -9.153  20.728  0.00  0.00    -0.481 OA
ATOM     16  H   UNL     1     -35.014  -9.874  21.370  0.00  0.00    +0.295 HD
ENDBRANCH  13  15
ENDBRANCH  12  13
ENDBRANCH  11  12
ENDBRANCH  10  11
ENDBRANCH   3   5
BRANCH   2  17
ATOM     17  C   UNL     1     -30.755 -12.352  17.706  0.00  0.00    +0.108 C 
BRANCH  17  18
ATOM     18  C   UNL     1     -29.731 -13.305  17.079  0.00  0.00    +0.024 C 
BRANCH  18  19
ATOM     19  C   UNL     1     -30.400 -14.465  16.331  0.00  0.00    +0.036 C 
BRANCH  19  20
ATOM     20  C   UNL     1     -29.805 -14.618  14.957  0.00  0.00    -0.047 A 
ATOM     21  C   UNL     1     -30.626 -14.578  13.818  0.00  0.00    +0.003 A 
ATOM     22  C   UNL     1     -30.066 -14.685  12.542  0.00  0.00    +0.000 A 
ATOM     23  C   UNL     1     -28.683 -14.823  12.393  0.00  0.00    +0.000 A 
ATOM     24  C   UNL     1     -27.858 -14.849  13.521  0.00  0.00    +0.000 A 
ATOM     25  C   UNL     1     -28.414 -14.742  14.799  0.00  0.00    +0.003 A 
ENDBRANCH  19  20
ENDBRANCH  18  19
ENDBRANCH  17  18
ENDBRANCH   2  17
TORSDOF 9
ENDMDL
MODEL 7
REMARK VINA RESULT:    -3.953      2.052      4.254
REMARK INTER + INTRA:          -9.468
REMARK INTER:                  -7.297
REMARK INTRA:                  -2.170
REMARK UNBOUND:                -3.551
REMARK  Name = 
REMARK  10 active torsions:
REMARK  status: ('A' for Active; 'I' for Inactive)
REMARK    1  A    between atoms: C_1  and  N_2
REMARK    2  A    between atoms: N_2  and  C_3
REMARK    3  A    between atoms: C_3  and  C_4
REMARK    4  A    between atoms: C_4  and  C_5
REMARK    5  A    between atoms: C_5  and  C_6
REMARK    6  A    between atoms: C_12  and  C_14
REMARK    7  A    between atoms: C_19  and  C_20
REMARK    8  A    between atoms: C_20  and  C_21
REMARK    9  A    between atoms: C_21  and  C_22
REMARK   10  A    between atoms: C_22  and  O_24
REMARK                            x       y       z     vdW  Elec       q    Type
REMARK                         _______ _______ _______ _____ _____    ______ ____
ROOT
ATOM      1  C   UNL     1     -31.589  -8.965  18.548  0.00  0.00    +0.132 C 
ATOM      2  N   UNL     1     -31.956 -10.097  17.691  0.00  0.00    -0.301 N 
ATOM      3  C   UNL     1     -31.517 -10.096  16.317  0.00  0.00    +0.247 C 
ATOM      4  O   UNL     1     -30.506  -9.423  15.979  0.00  0.00    -0.270 OA
ENDROOT
BRANCH   3   5
ATOM      5  C   UNL     1     -32.245 -10.843  15.276  0.00  0.00    +0.040 A 
ATOM      6  C   UNL     1     -33.464 -10.331  14.807  0.00  0.00    +0.013 A 
ATOM      7  C   UNL     1     -34.173 -10.997  13.806  0.00  0.00    +0.001 A 
ATOM      8  C   UNL     1     -33.680 -12.188  13.275  0.00  0.00    +0.000 A 
ATOM      9  C   UNL     1     -32.484 -12.726  13.754  0.00  0.00    +0.004 A 
ATOM     10  C   UNL     1     -31.757 -12.073  14.766  0.00  0.00    -0.035 A 
BRANCH  10  11
ATOM     11  C   UNL     1     -30.491 -12.722  15.290  0.00  0.00    +0.047 C 
BRANCH  11  12
ATOM     12  C   UNL     1     -30.372 -14.202  14.902  0.00  0.00    +0.125 C 
BRANCH  12  13
ATOM     13  C   UNL     1     -28.948 -14.665  14.886  0.00  0.00    +0.305 C 
ATOM     14  O   UNL     1     -28.424 -15.057  13.810  0.00  0.00    -0.251 OA
BRANCH  13  15
ATOM     15  O   UNL     1     -28.193 -14.623  16.054  0.00  0.00    -0.481 OA
ATOM     16  H   UNL     1     -27.957 -13.739  16.488  0.00  0.00    +0.295 HD
ENDBRANCH  13  15
ENDBRANCH  12  13
ENDBRANCH  11  12
ENDBRANCH  10  11
ENDBRANCH   3   5
BRANCH   2  17
ATOM     17  C   UNL     1     -32.786 -11.189  18.230  0.00  0.00    +0.108 C 
BRANCH  17  18
ATOM     18  C   UNL     1     -32.073 -11.923  19.372  0.00  0.00    +0.024 C 
BRANCH  18  19
ATOM     19  C   UNL     1     -31.256 -13.120  18.870  0.00  0.00    +0.036 C 
BRANCH  19  20
ATOM     20  C   UNL     1     -29.800 -12.941  19.204  0.00  0.00    -0.047 A 
ATOM     21  C   UNL     1     -29.241 -13.589  20.318  0.00  0.00    +0.003 A 
ATOM     22  C   UNL     1     -27.880 -13.449  20.606  0.00  0.00    +0.000 A 
ATOM     23  C   UNL     1     -27.066 -12.669  19.779  0.00  0.00    +0.000 A 
ATOM     24  C   UNL     1     -27.612 -12.033  18.660  0.00  0.00    +0.000 A 
ATOM     25  C   UNL     1     -28.972 -12.170  18.369  0.00  0.00    +0.003 A 
ENDBRANCH  19  20
ENDBRANCH  18  19
ENDBRANCH  17  18
ENDBRANCH   2  17
TORSDOF 9
ENDMDL
MODEL 8
REMARK VINA RESULT:    -3.902      2.723      6.721
REMARK INTER + INTRA:          -9.392
REMARK INTER:                  -7.108
REMARK INTRA:                  -2.284
REMARK UNBOUND:                -3.551
REMARK  Name = 
REMARK  10 active torsions:
REMARK  status: ('A' for Active; 'I' for Inactive)
REMARK    1  A    between atoms: C_1  and  N_2
REMARK    2  A    between atoms: N_2  and  C_3
REMARK    3  A    between atoms: C_3  and  C_4
REMARK    4  A    between atoms: C_4  and  C_5
REMARK    5  A    between atoms: C_5  and  C_6
REMARK    6  A    between atoms: C_12  and  C_14
REMARK    7  A    between atoms: C_19  and  C_20
REMARK    8  A    between atoms: C_20  and  C_21
REMARK    9  A    between atoms: C_21  and  C_22
REMARK   10  A    between atoms: C_22  and  O_24
REMARK                            x       y       z     vdW  Elec       q    Type
REMARK                         _______ _______ _______ _____ _____    ______ ____
ROOT
ATOM      1  C   UNL     1     -31.283 -10.361  16.241  0.00  0.00    +0.132 C 
ATOM      2  N   UNL     1     -31.028 -11.059  17.504  0.00  0.00    -0.301 N 
ATOM      3  C   UNL     1     -29.907 -10.641  18.310  0.00  0.00    +0.247 C 
ATOM      4  O   UNL     1     -29.449  -9.473  18.197  0.00  0.00    -0.270 OA
ENDROOT
BRANCH   3   5
ATOM      5  C   UNL     1     -29.252 -11.565  19.255  0.00  0.00    +0.040 A 
ATOM      6  C   UNL     1     -28.215 -12.385  18.785  0.00  0.00    +0.013 A 
ATOM      7  C   UNL     1     -27.555 -13.257  19.652  0.00  0.00    +0.001 A 
ATOM      8  C   UNL     1     -27.933 -13.329  20.992  0.00  0.00    +0.000 A 
ATOM      9  C   UNL     1     -28.984 -12.542  21.467  0.00  0.00    +0.004 A 
ATOM     10  C   UNL     1     -29.666 -11.661  20.608  0.00  0.00    -0.035 A 
BRANCH  10  11
ATOM     11  C   UNL     1     -30.834 -10.865  21.156  0.00  0.00    +0.047 C 
BRANCH  11  12
ATOM     12  C   UNL     1     -30.395  -9.690  22.040  0.00  0.00    +0.125 C 
BRANCH  12  13
ATOM     13  C   UNL     1     -30.717  -8.367  21.417  0.00  0.00    +0.305 C 
ATOM     14  O   UNL     1     -31.687  -7.687  21.844  0.00  0.00    -0.251 OA
BRANCH  13  15
ATOM     15  O   UNL     1     -29.916  -7.872  20.393  0.00  0.00    -0.481 OA
ATOM     16  H   UNL     1     -29.315  -7.070  20.544  0.00  0.00    +0.295 HD
ENDBRANCH  13  15
ENDBRANCH  12  13
ENDBRANCH  11  12
ENDBRANCH  10  11
ENDBRANCH   3   5
BRANCH   2  17
ATOM     17  C   UNL     1     -31.888 -12.184  17.909  0.00  0.00    +0.108 C 
BRANCH  17  18
ATOM     18  C   UNL     1     -32.036 -13.211  16.781  0.00  0.00    +0.024 C 
BRANCH  18  19
ATOM     19  C   UNL     1     -30.901 -14.243  16.783  0.00  0.00    +0.036 C 
BRANCH  19  20
ATOM     20  C   UNL     1     -30.276 -14.341  15.417  0.00  0.00    -0.047 A 
ATOM     21  C   UNL     1     -31.004 -13.970  14.275  0.00  0.00    +0.003 A 
ATOM     22  C   UNL     1     -30.410 -14.029  13.011  0.00  0.00    +0.000 A 
ATOM     23  C   UNL     1     -29.083 -14.449  12.879  0.00  0.00    +0.000 A 
ATOM     24  C   UNL     1     -28.347 -14.806  14.013  0.00  0.00    +0.000 A 
ATOM     25  C   UNL     1     -28.938 -14.748  15.279  0.00  0.00    +0.003 A 
ENDBRANCH  19  20
ENDBRANCH  18  19
ENDBRANCH  17  18
ENDBRANCH   2  17
TORSDOF 9
ENDMDL
MODEL 9
REMARK VINA RESULT:    -3.882      2.487      5.507
REMARK INTER + INTRA:          -9.363
REMARK INTER:                  -7.098
REMARK INTRA:                  -2.264
REMARK UNBOUND:                -3.551
REMARK  Name = 
REMARK  10 active torsions:
REMARK  status: ('A' for Active; 'I' for Inactive)
REMARK    1  A    between atoms: C_1  and  N_2
REMARK    2  A    between atoms: N_2  and  C_3
REMARK    3  A    between atoms: C_3  and  C_4
REMARK    4  A    between atoms: C_4  and  C_5
REMARK    5  A    between atoms: C_5  and  C_6
REMARK    6  A    between atoms: C_12  and  C_14
REMARK    7  A    between atoms: C_19  and  C_20
REMARK    8  A    between atoms: C_20  and  C_21
REMARK    9  A    between atoms: C_21  and  C_22
REMARK   10  A    between atoms: C_22  and  O_24
REMARK                            x       y       z     vdW  Elec       q    Type
REMARK                         _______ _______ _______ _____ _____    ______ ____
ROOT
ATOM      1  C   UNL     1     -28.243 -12.111  18.404  0.00  0.00    +0.132 C 
ATOM      2  N   UNL     1     -29.632 -11.687  18.211  0.00  0.00    -0.301 N 
ATOM      3  C   UNL     1     -29.885 -10.375  17.665  0.00  0.00    +0.247 C 
ATOM      4  O   UNL     1     -29.007  -9.803  16.966  0.00  0.00    -0.270 OA
ENDROOT
BRANCH   3   5
ATOM      5  C   UNL     1     -31.147  -9.661  17.932  0.00  0.00    +0.040 A 
ATOM      6  C   UNL     1     -31.300  -9.000  19.159  0.00  0.00    +0.013 A 
ATOM      7  C   UNL     1     -32.471  -8.293  19.442  0.00  0.00    +0.001 A 
ATOM      8  C   UNL     1     -33.506  -8.255  18.508  0.00  0.00    +0.000 A 
ATOM      9  C   UNL     1     -33.381  -8.935  17.295  0.00  0.00    +0.004 A 
ATOM     10  C   UNL     1     -32.211  -9.656  16.994  0.00  0.00    -0.035 A 
BRANCH  10  11
ATOM     11  C   UNL     1     -32.142 -10.422  15.687  0.00  0.00    +0.047 C 
BRANCH  11  12
ATOM     12  C   UNL     1     -33.436 -10.327  14.868  0.00  0.00    +0.125 C 
BRANCH  12  13
ATOM     13  C   UNL     1     -34.204 -11.612  14.880  0.00  0.00    +0.305 C 
ATOM     14  O   UNL     1     -34.327 -12.284  13.822  0.00  0.00    -0.251 OA
BRANCH  13  15
ATOM     15  O   UNL     1     -34.746 -12.084  16.072  0.00  0.00    -0.481 OA
ATOM     16  H   UNL     1     -34.396 -11.761  16.965  0.00  0.00    +0.295 HD
ENDBRANCH  13  15
ENDBRANCH  12  13
ENDBRANCH  11  12
ENDBRANCH  10  11
ENDBRANCH   3   5
BRANCH   2  17
ATOM     17  C   UNL     1     -30.736 -12.581  18.602  0.00  0.00    +0.108 C 
BRANCH  17  18
ATOM     18  C   UNL     1     -30.633 -13.939  17.897  0.00  0.00    +0.024 C 
BRANCH  18  19
ATOM     19  C   UNL     1     -31.522 -14.012  16.650  0.00  0.00    +0.036 C 
BRANCH  19  20
ATOM     20  C   UNL     1     -30.682 -14.202  15.416  0.00  0.00    -0.047 A 
ATOM     21  C   UNL     1     -31.184 -13.849  14.152  0.00  0.00    +0.003 A 
ATOM     22  C   UNL     1     -30.388 -13.994  13.012  0.00  0.00    +0.000 A 
ATOM     23  C   UNL     1     -29.083 -14.482  13.126  0.00  0.00    +0.000 A 
ATOM     24  C   UNL     1     -28.571 -14.821  14.381  0.00  0.00    +0.000 A 
ATOM     25  C   UNL     1     -29.363 -14.678  15.524  0.00  0.00    +0.003 A 
ENDBRANCH  19  20
ENDBRANCH  18  19
ENDBRANCH  17  18
ENDBRANCH   2  17
TORSDOF 9
ENDMDL
