MODEL 1
REMARK VINA RESULT:    -3.655      0.000      0.000
REMARK INTER + INTRA:          -5.134
REMARK INTER:                  -4.510
REMARK INTRA:                  -0.624
REMARK UNBOUND:                -0.624
REMARK  Name = 
REMARK  6 active torsions:
REMARK  status: ('A' for Active; 'I' for Inactive)
REMARK    1  A    between atoms: C_1  and  C_2
REMARK    2  A    between atoms: C_2  and  C_3
REMARK    3  A    between atoms: C_3  and  C_4
REMARK    4  A    between atoms: C_3  and  N_6
REMARK    5  A    between atoms: C_4  and  C_5
REMARK    6  A    between atoms: C_10  and  N_14
REMARK                            x       y       z     vdW  Elec       q    Type
REMARK                         _______ _______ _______ _____ _____    ______ ____
ROOT
ATOM      1  N   UNL     1     -31.249 -13.019  20.158  0.00  0.00    -0.311 N 
ATOM      2  C   UNL     1     -29.818 -13.089  20.209  0.00  0.00    +0.217 A 
ATOM      3  N   UNL     1     -29.056 -12.298  19.409  0.00  0.00    -0.221 NA
ATOM      4  C   UNL     1     -27.702 -12.356  19.449  0.00  0.00    +0.150 A 
ATOM      5  C   UNL     1     -27.057 -13.232  20.333  0.00  0.00    +0.184 A 
ATOM      6  C   UNL     1     -27.864 -14.066  21.137  0.00  0.00    +0.152 A 
ATOM      7  N   UNL     1     -27.301 -15.062  21.996  0.00  0.00    -0.341 N 
ATOM      8  N   UNL     1     -29.218 -13.964  21.056  0.00  0.00    -0.198 NA
ATOM      9  H   UNL     1     -31.792 -13.633  20.807  0.00  0.00    +0.149 HD
ATOM     10  H   UNL     1     -27.924 -15.608  22.633  0.00  0.00    +0.144 HD
ATOM     11  H   UNL     1     -26.303 -15.355  21.929  0.00  0.00    +0.144 HD
ENDROOT
BRANCH   5  12
ATOM     12  N   UNL     1     -25.622 -13.235  20.412  0.00  0.00    +0.061 N 
ATOM     13  O   UNL     1     -24.993 -13.937  21.414  0.00  0.00    -0.126 OA
ATOM     14  O   UNL     1     -24.938 -12.789  19.468  0.00  0.00    -0.126 OA
ENDBRANCH   5  12
BRANCH   1  15
ATOM     15  C   UNL     1     -31.961 -12.100  19.261  0.00  0.00    +0.073 C 
BRANCH  15  17
ATOM     16  C   UNL     1     -31.990 -12.124  16.702  0.00  0.00    +0.006 C 
ATOM     17  C   UNL     1     -32.401 -12.857  17.978  0.00  0.00    +0.019 C 
ENDBRANCH  15  17
BRANCH  15  18
ATOM     18  C   UNL     1     -33.160 -11.477  20.013  0.00  0.00    +0.019 C 
ATOM     19  C   UNL     1     -32.858 -10.092  20.584  0.00  0.00    +0.006 C 
ENDBRANCH  15  18
ENDBRANCH   1  15
TORSDOF 4
ENDMDL
MODEL 2
REMARK VINA RESULT:    -3.644      1.988      2.253
REMARK INTER + INTRA:          -5.120
REMARK INTER:                  -4.464
REMARK INTRA:                  -0.656
REMARK UNBOUND:                -0.624
REMARK  Name = 
REMARK  6 active torsions:
REMARK  status: ('A' for Active; 'I' for Inactive)
REMARK    1  A    between atoms: C_1  and  C_2
REMARK    2  A    between atoms: C_2  and  C_3
REMARK    3  A    between atoms: C_3  and  C_4
REMARK    4  A    between atoms: C_3  and  N_6
REMARK    5  A    between atoms: C_4  and  C_5
REMARK    6  A    between atoms: C_10  and  N_14
REMARK                            x       y       z     vdW  Elec       q    Type
REMARK                         _______ _______ _______ _____ _____    ______ ____
ROOT
ATOM      1  N   UNL     1     -30.696 -11.922  17.792  0.00  0.00    -0.311 N 
ATOM      2  C   UNL     1     -29.501 -12.289  18.492  0.00  0.00    +0.217 A 
ATOM      3  N   UNL     1     -28.287 -11.849  18.070  0.00  0.00    -0.221 NA
ATOM      4  C   UNL     1     -27.149 -12.191  18.725  0.00  0.00    +0.150 A 
ATOM      5  C   UNL     1     -27.206 -13.000  19.868  0.00  0.00    +0.184 A 
ATOM      6  C   UNL     1     -28.473 -13.471  20.277  0.00  0.00    +0.152 A 
ATOM      7  N   UNL     1     -28.625 -14.382  21.369  0.00  0.00    -0.341 N 
ATOM      8  N   UNL     1     -29.581 -13.095  19.582  0.00  0.00    -0.198 NA
ATOM      9  H   UNL     1     -31.609 -12.268  18.168  0.00  0.00    +0.149 HD
ATOM     10  H   UNL     1     -29.582 -14.648  21.692  0.00  0.00    +0.144 HD
ATOM     11  H   UNL     1     -27.816 -14.891  21.785  0.00  0.00    +0.144 HD
ENDROOT
BRANCH   5  12
ATOM     12  N   UNL     1     -26.001 -13.298  20.590  0.00  0.00    +0.061 N 
ATOM     13  O   UNL     1     -26.058 -13.558  21.940  0.00  0.00    -0.126 OA
ATOM     14  O   UNL     1     -24.940 -13.536  19.976  0.00  0.00    -0.126 OA
ENDBRANCH   5  12
BRANCH   1  15
ATOM     15  C   UNL     1     -30.680 -11.059  16.604  0.00  0.00    +0.073 C 
BRANCH  15  17
ATOM     16  C   UNL     1     -30.827 -12.968  14.905  0.00  0.00    +0.006 C 
ATOM     17  C   UNL     1     -31.506 -11.719  15.467  0.00  0.00    +0.019 C 
ENDBRANCH  15  17
BRANCH  15  18
ATOM     18  C   UNL     1     -31.217  -9.658  16.981  0.00  0.00    +0.019 C 
ATOM     19  C   UNL     1     -32.644  -9.411  16.493  0.00  0.00    +0.006 C 
ENDBRANCH  15  18
ENDBRANCH   1  15
TORSDOF 4
ENDMDL
MODEL 3
REMARK VINA RESULT:    -3.530      3.580      5.068
REMARK INTER + INTRA:          -4.979
REMARK INTER:                  -4.441
REMARK INTRA:                  -0.538
REMARK UNBOUND:                -0.624
REMARK  Name = 
REMARK  6 active torsions:
REMARK  status: ('A' for Active; 'I' for Inactive)
REMARK    1  A    between atoms: C_1  and  C_2
REMARK    2  A    between atoms: C_2  and  C_3
REMARK    3  A    between atoms: C_3  and  C_4
REMARK    4  A    between atoms: C_3  and  N_6
REMARK    5  A    between atoms: C_4  and  C_5
REMARK    6  A    between atoms: C_10  and  N_14
REMARK                            x       y       z     vdW  Elec       q    Type
REMARK                         _______ _______ _______ _____ _____    ______ ____
ROOT
ATOM      1  N   UNL     1     -29.093 -13.933  15.326  0.00  0.00    -0.311 N 
ATOM      2  C   UNL     1     -29.270 -13.682  16.726  0.00  0.00    +0.217 A 
ATOM      3  N   UNL     1     -30.483 -13.853  17.313  0.00  0.00    -0.221 NA
ATOM      4  C   UNL     1     -30.661 -13.618  18.637  0.00  0.00    +0.150 A 
ATOM      5  C   UNL     1     -29.585 -13.203  19.434  0.00  0.00    +0.184 A 
ATOM      6  C   UNL     1     -28.338 -13.004  18.802  0.00  0.00    +0.152 A 
ATOM      7  N   UNL     1     -27.206 -12.487  19.507  0.00  0.00    -0.341 N 
ATOM      8  N   UNL     1     -28.217 -13.256  17.470  0.00  0.00    -0.198 NA
ATOM      9  H   UNL     1     -28.136 -13.807  14.923  0.00  0.00    +0.149 HD
ATOM     10  H   UNL     1     -26.281 -12.425  19.027  0.00  0.00    +0.144 HD
ATOM     11  H   UNL     1     -27.290 -12.052  20.451  0.00  0.00    +0.144 HD
ENDROOT
BRANCH   5  12
ATOM     12  N   UNL     1     -29.772 -13.023  20.847  0.00  0.00    +0.061 N 
ATOM     13  O   UNL     1     -28.766 -13.365  21.721  0.00  0.00    -0.126 OA
ATOM     14  O   UNL     1     -30.744 -12.366  21.275  0.00  0.00    -0.126 OA
ENDBRANCH   5  12
BRANCH   1  15
ATOM     15  C   UNL     1     -30.191 -14.389  14.463  0.00  0.00    +0.073 C 
BRANCH  15  17
ATOM     16  C   UNL     1     -31.788 -13.353  12.752  0.00  0.00    +0.006 C 
ATOM     17  C   UNL     1     -31.114 -13.189  14.114  0.00  0.00    +0.019 C 
ENDBRANCH  15  17
BRANCH  15  18
ATOM     18  C   UNL     1     -29.604 -15.062  13.200  0.00  0.00    +0.019 C 
ATOM     19  C   UNL     1     -28.121 -14.760  12.992  0.00  0.00    +0.006 C 
ENDBRANCH  15  18
ENDBRANCH   1  15
TORSDOF 4
ENDMDL
MODEL 4
REMARK VINA RESULT:    -3.516      3.633      5.120
REMARK INTER + INTRA:          -4.962
REMARK INTER:                  -4.309
REMARK INTRA:                  -0.653
REMARK UNBOUND:                -0.624
REMARK  Name = 
REMARK  6 active torsions:
REMARK  status: ('A' for Active; 'I' for Inactive)
REMARK    1  A    between atoms: C_1  and  C_2
REMARK    2  A    between atoms: C_2  and  C_3
REMARK    3  A    between atoms: C_3  and  C_4
REMARK    4  A    between atoms: C_3  and  N_6
REMARK    5  A    between atoms: C_4  and  C_5
REMARK    6  A    between atoms: C_10  and  N_14
REMARK                            x       y       z     vdW  Elec       q    Type
REMARK                         _______ _______ _______ _____ _____    ______ ____
ROOT
ATOM      1  N   UNL     1     -31.076 -14.080  15.364  0.00  0.00    -0.311 N 
ATOM      2  C   UNL     1     -30.680 -13.377  16.549  0.00  0.00    +0.217 A 
ATOM      3  N   UNL     1     -30.052 -12.175  16.464  0.00  0.00    -0.221 NA
ATOM      4  C   UNL     1     -29.673 -11.501  17.579  0.00  0.00    +0.150 A 
ATOM      5  C   UNL     1     -29.935 -12.031  18.850  0.00  0.00    +0.184 A 
ATOM      6  C   UNL     1     -30.564 -13.294  18.919  0.00  0.00    +0.152 A 
ATOM      7  N   UNL     1     -30.785 -13.962  20.164  0.00  0.00    -0.341 N 
ATOM      8  N   UNL     1     -30.924 -13.923  17.768  0.00  0.00    -0.198 NA
ATOM      9  H   UNL     1     -31.575 -14.992  15.480  0.00  0.00    +0.149 HD
ATOM     10  H   UNL     1     -31.321 -14.858  20.182  0.00  0.00    +0.144 HD
ATOM     11  H   UNL     1     -30.326 -13.655  21.049  0.00  0.00    +0.144 HD
ENDROOT
BRANCH   5  12
ATOM     12  N   UNL     1     -29.589 -11.276  20.021  0.00  0.00    +0.061 N 
ATOM     13  O   UNL     1     -29.745  -9.909  20.027  0.00  0.00    -0.126 OA
ATOM     14  O   UNL     1     -29.353 -11.859  21.100  0.00  0.00    -0.126 OA
ENDBRANCH   5  12
BRANCH   1  15
ATOM     15  C   UNL     1     -30.838 -13.548  14.016  0.00  0.00    +0.073 C 
BRANCH  15  17
ATOM     16  C   UNL     1     -28.664 -14.575  13.137  0.00  0.00    +0.006 C 
ATOM     17  C   UNL     1     -30.191 -14.647  13.128  0.00  0.00    +0.019 C 
ENDBRANCH  15  17
BRANCH  15  18
ATOM     18  C   UNL     1     -32.171 -13.030  13.427  0.00  0.00    +0.019 C 
ATOM     19  C   UNL     1     -32.377 -13.429  11.967  0.00  0.00    +0.006 C 
ENDBRANCH  15  18
ENDBRANCH   1  15
TORSDOF 4
ENDMDL
MODEL 5
REMARK VINA RESULT:    -3.465      5.000      6.777
REMARK INTER + INTRA:          -4.900
REMARK INTER:                  -4.634
REMARK INTRA:                  -0.266
REMARK UNBOUND:                -0.624
REMARK  Name = 
REMARK  6 active torsions:
REMARK  status: ('A' for Active; 'I' for Inactive)
REMARK    1  A    between atoms: C_1  and  C_2
REMARK    2  A    between atoms: C_2  and  C_3
REMARK    3  A    between atoms: C_3  and  C_4
REMARK    4  A    between atoms: C_3  and  N_6
REMARK    5  A    between atoms: C_4  and  C_5
REMARK    6  A    between atoms: C_10  and  N_14
REMARK                            x       y       z     vdW  Elec       q    Type
REMARK                         _______ _______ _______ _____ _____    ______ ____
ROOT
ATOM      1  N   UNL     1     -32.045 -11.872  14.082  0.00  0.00    -0.311 N 
ATOM      2  C   UNL     1     -31.719 -11.125  15.262  0.00  0.00    +0.217 A 
ATOM      3  N   UNL     1     -30.614 -11.428  15.991  0.00  0.00    -0.221 NA
ATOM      4  C   UNL     1     -30.297 -10.728  17.109  0.00  0.00    +0.150 A 
ATOM      5  C   UNL     1     -31.103  -9.662  17.529  0.00  0.00    +0.184 A 
ATOM      6  C   UNL     1     -32.263  -9.378  16.774  0.00  0.00    +0.152 A 
ATOM      7  N   UNL     1     -33.201  -8.375  17.176  0.00  0.00    -0.341 N 
ATOM      8  N   UNL     1     -32.531 -10.112  15.661  0.00  0.00    -0.198 NA
ATOM      9  H   UNL     1     -32.894 -11.587  13.542  0.00  0.00    +0.149 HD
ATOM     10  H   UNL     1     -34.005  -8.140  16.554  0.00  0.00    +0.144 HD
ATOM     11  H   UNL     1     -33.185  -7.949  18.128  0.00  0.00    +0.144 HD
ENDROOT
BRANCH   5  12
ATOM     12  N   UNL     1     -30.719  -8.887  18.676  0.00  0.00    +0.061 N 
ATOM     13  O   UNL     1     -31.593  -7.965  19.204  0.00  0.00    -0.126 OA
ATOM     14  O   UNL     1     -29.696  -9.187  19.326  0.00  0.00    -0.126 OA
ENDBRANCH   5  12
BRANCH   1  15
ATOM     15  C   UNL     1     -31.214 -12.982  13.598  0.00  0.00    +0.073 C 
BRANCH  15  17
ATOM     16  C   UNL     1     -29.779 -14.757  14.758  0.00  0.00    +0.006 C 
ATOM     17  C   UNL     1     -31.157 -14.099  14.676  0.00  0.00    +0.019 C 
ENDBRANCH  15  17
BRANCH  15  18
ATOM     18  C   UNL     1     -31.776 -13.495  12.252  0.00  0.00    +0.019 C 
ATOM     19  C   UNL     1     -33.235 -13.104  12.023  0.00  0.00    +0.006 C 
ENDBRANCH  15  18
ENDBRANCH   1  15
TORSDOF 4
ENDMDL
MODEL 6
REMARK VINA RESULT:    -3.460      3.687      5.141
REMARK INTER + INTRA:          -4.893
REMARK INTER:                  -4.289
REMARK INTRA:                  -0.604
REMARK UNBOUND:                -0.624
REMARK  Name = 
REMARK  6 active torsions:
REMARK  status: ('A' for Active; 'I' for Inactive)
REMARK    1  A    between atoms: C_1  and  C_2
REMARK    2  A    between atoms: C_2  and  C_3
REMARK    3  A    between atoms: C_3  and  C_4
REMARK    4  A    between atoms: C_3  and  N_6
REMARK    5  A    between atoms: C_4  and  C_5
REMARK    6  A    between atoms: C_10  and  N_14
REMARK                            x       y       z     vdW  Elec       q    Type
REMARK                         _______ _______ _______ _____ _____    ______ ____
ROOT
ATOM      1  N   UNL     1     -32.158 -12.779  14.485  0.00  0.00    -0.311 N 
ATOM      2  C   UNL     1     -31.318 -12.233  15.510  0.00  0.00    +0.217 A 
ATOM      3  N   UNL     1     -31.246 -10.890  15.704  0.00  0.00    -0.221 NA
ATOM      4  C   UNL     1     -30.455 -10.362  16.672  0.00  0.00    +0.150 A 
ATOM      5  C   UNL     1     -29.699 -11.200  17.503  0.00  0.00    +0.184 A 
ATOM      6  C   UNL     1     -29.765 -12.591  17.270  0.00  0.00    +0.152 A 
ATOM      7  N   UNL     1     -28.957 -13.520  17.998  0.00  0.00    -0.341 N 
ATOM      8  N   UNL     1     -30.577 -13.065  16.286  0.00  0.00    -0.198 NA
ATOM      9  H   UNL     1     -32.196 -13.820  14.387  0.00  0.00    +0.149 HD
ATOM     10  H   UNL     1     -29.089 -14.545  17.853  0.00  0.00    +0.144 HD
ATOM     11  H   UNL     1     -28.152 -13.215  18.586  0.00  0.00    +0.144 HD
ENDROOT
BRANCH   5  12
ATOM     12  N   UNL     1     -28.918 -10.631  18.567  0.00  0.00    +0.061 N 
ATOM     13  O   UNL     1     -27.665 -11.130  18.838  0.00  0.00    -0.126 OA
ATOM     14  O   UNL     1     -29.269  -9.560  19.103  0.00  0.00    -0.126 OA
ENDBRANCH   5  12
BRANCH   1  15
ATOM     15  C   UNL     1     -32.980 -11.936  13.607  0.00  0.00    +0.073 C 
BRANCH  15  17
ATOM     16  C   UNL     1     -32.177 -13.703  11.939  0.00  0.00    +0.006 C 
ATOM     17  C   UNL     1     -33.268 -12.689  12.280  0.00  0.00    +0.019 C 
ENDBRANCH  15  17
BRANCH  15  18
ATOM     18  C   UNL     1     -34.277 -11.537  14.348  0.00  0.00    +0.019 C 
ATOM     19  C   UNL     1     -34.530 -10.031  14.348  0.00  0.00    +0.006 C 
ENDBRANCH  15  18
ENDBRANCH   1  15
TORSDOF 4
ENDMDL
MODEL 7
REMARK VINA RESULT:    -3.316      2.752      3.524
REMARK INTER + INTRA:          -4.715
REMARK INTER:                  -4.069
REMARK INTRA:                  -0.646
REMARK UNBOUND:                -0.624
REMARK  Name = 
REMARK  6 active torsions:
REMARK  status: ('A' for Active; 'I' for Inactive)
REMARK    1  A    between atoms: C_1  and  C_2
REMARK    2  A    between atoms: C_2  and  C_3
REMARK    3  A    between atoms: C_3  and  C_4
REMARK    4  A    between atoms: C_3  and  N_6
REMARK    5  A    between atoms: C_4  and  C_5
REMARK    6  A    between atoms: C_10  and  N_14
REMARK                            x       y       z     vdW  Elec       q    Type
REMARK                         _______ _______ _______ _____ _____    ______ ____
ROOT
ATOM      1  N   UNL     1     -32.522 -10.806  17.276  0.00  0.00    -0.311 N 
ATOM      2  C   UNL     1     -31.173 -11.154  17.613  0.00  0.00    +0.217 A 
ATOM      3  N   UNL     1     -30.181 -10.227  17.547  0.00  0.00    -0.221 NA
ATOM      4  C   UNL     1     -28.901 -10.546  17.863  0.00  0.00    +0.150 A 
ATOM      5  C   UNL     1     -28.576 -11.844  18.279  0.00  0.00    +0.184 A 
ATOM      6  C   UNL     1     -29.614 -12.801  18.315  0.00  0.00    +0.152 A 
ATOM      7  N   UNL     1     -29.366 -14.175  18.629  0.00  0.00    -0.341 N 
ATOM      8  N   UNL     1     -30.880 -12.425  17.989  0.00  0.00    -0.198 NA
ATOM      9  H   UNL     1     -33.254 -11.547  17.363  0.00  0.00    +0.149 HD
ATOM     10  H   UNL     1     -30.168 -14.837  18.722  0.00  0.00    +0.144 HD
ATOM     11  H   UNL     1     -28.404 -14.575  18.652  0.00  0.00    +0.144 HD
ENDROOT
BRANCH   5  12
ATOM     12  N   UNL     1     -27.230 -12.150  18.674  0.00  0.00    +0.061 N 
ATOM     13  O   UNL     1     -26.240 -11.205  18.525  0.00  0.00    -0.126 OA
ATOM     14  O   UNL     1     -26.987 -13.175  19.345  0.00  0.00    -0.126 OA
ENDBRANCH   5  12
BRANCH   1  15
ATOM     15  C   UNL     1     -32.905  -9.451  16.857  0.00  0.00    +0.073 C 
BRANCH  15  17
ATOM     16  C   UNL     1     -34.557  -8.406  15.205  0.00  0.00    +0.006 C 
ATOM     17  C   UNL     1     -33.513  -9.500  15.429  0.00  0.00    +0.019 C 
ENDBRANCH  15  17
BRANCH  15  18
ATOM     18  C   UNL     1     -33.887  -8.853  17.891  0.00  0.00    +0.019 C 
ATOM     19  C   UNL     1     -33.202  -7.950  18.916  0.00  0.00    +0.006 C 
ENDBRANCH  15  18
ENDBRANCH   1  15
TORSDOF 4
ENDMDL
MODEL 8
REMARK VINA RESULT:    -3.315      5.618      7.178
REMARK INTER + INTRA:          -4.714
REMARK INTER:                  -4.043
REMARK INTRA:                  -0.671
REMARK UNBOUND:                -0.624
REMARK  Name = 
REMARK  6 active torsions:
REMARK  status: ('A' for Active; 'I' for Inactive)
REMARK    1  A    between atoms: C_1  and  C_2
REMARK    2  A    between atoms: C_2  and  C_3
REMARK    3  A    between atoms: C_3  and  C_4
REMARK    4  A    between atoms: C_3  and  N_6
REMARK    5  A    between atoms: C_4  and  C_5
REMARK    6  A    between atoms: C_10  and  N_14
REMARK                            x       y       z     vdW  Elec       q    Type
REMARK                         _______ _______ _______ _____ _____    ______ ____
ROOT
ATOM      1  N   UNL     1     -31.621 -11.952  13.939  0.00  0.00    -0.311 N 
ATOM      2  C   UNL     1     -32.097 -11.625  15.250  0.00  0.00    +0.217 A 
ATOM      3  N   UNL     1     -32.694 -12.567  16.026  0.00  0.00    -0.221 NA
ATOM      4  C   UNL     1     -33.148 -12.268  17.269  0.00  0.00    +0.150 A 
ATOM      5  C   UNL     1     -32.997 -10.974  17.785  0.00  0.00    +0.184 A 
ATOM      6  C   UNL     1     -32.398 -10.001  16.955  0.00  0.00    +0.152 A 
ATOM      7  N   UNL     1     -32.289  -8.631  17.353  0.00  0.00    -0.341 N 
ATOM      8  N   UNL     1     -31.960 -10.357  15.718  0.00  0.00    -0.198 NA
ATOM      9  H   UNL     1     -31.149 -11.199  13.388  0.00  0.00    +0.149 HD
ATOM     10  H   UNL     1     -31.772  -7.956  16.747  0.00  0.00    +0.144 HD
ATOM     11  H   UNL     1     -32.810  -8.245  18.169  0.00  0.00    +0.144 HD
ENDROOT
BRANCH   5  12
ATOM     12  N   UNL     1     -33.421 -10.688  19.128  0.00  0.00    +0.061 N 
ATOM     13  O   UNL     1     -33.077 -11.540  20.152  0.00  0.00    -0.126 OA
ATOM     14  O   UNL     1     -33.912  -9.576  19.411  0.00  0.00    -0.126 OA
ENDBRANCH   5  12
BRANCH   1  15
ATOM     15  C   UNL     1     -31.742 -13.301  13.371  0.00  0.00    +0.073 C 
BRANCH  15  17
ATOM     16  C   UNL     1     -33.783 -12.726  11.938  0.00  0.00    +0.006 C 
ATOM     17  C   UNL     1     -32.335 -13.213  11.938  0.00  0.00    +0.019 C 
ENDBRANCH  15  17
BRANCH  15  18
ATOM     18  C   UNL     1     -30.358 -13.992  13.390  0.00  0.00    +0.019 C 
ATOM     19  C   UNL     1     -30.132 -14.848  14.635  0.00  0.00    +0.006 C 
ENDBRANCH  15  18
ENDBRANCH   1  15
TORSDOF 4
ENDMDL
MODEL 9
REMARK VINA RESULT:    -3.310      3.664      4.811
REMARK INTER + INTRA:          -4.708
REMARK INTER:                  -4.182
REMARK INTRA:                  -0.526
REMARK UNBOUND:                -0.624
REMARK  Name = 
REMARK  6 active torsions:
REMARK  status: ('A' for Active; 'I' for Inactive)
REMARK    1  A    between atoms: C_1  and  C_2
REMARK    2  A    between atoms: C_2  and  C_3
REMARK    3  A    between atoms: C_3  and  C_4
REMARK    4  A    between atoms: C_3  and  N_6
REMARK    5  A    between atoms: C_4  and  C_5
REMARK    6  A    between atoms: C_10  and  N_14
REMARK                            x       y       z     vdW  Elec       q    Type
REMARK                         _______ _______ _______ _____ _____    ______ ____
ROOT
ATOM      1  N   UNL     1     -29.202 -13.914  16.832  0.00  0.00    -0.311 N 
ATOM      2  C   UNL     1     -29.400 -12.790  17.699  0.00  0.00    +0.217 A 
ATOM      3  N   UNL     1     -29.959 -11.643  17.231  0.00  0.00    -0.221 NA
ATOM      4  C   UNL     1     -30.151 -10.574  18.043  0.00  0.00    +0.150 A 
ATOM      5  C   UNL     1     -29.784 -10.636  19.394  0.00  0.00    +0.184 A 
ATOM      6  C   UNL     1     -29.179 -11.825  19.857  0.00  0.00    +0.152 A 
ATOM      7  N   UNL     1     -28.680 -11.950  21.191  0.00  0.00    -0.341 N 
ATOM      8  N   UNL     1     -29.013 -12.867  18.998  0.00  0.00    -0.198 NA
ATOM      9  H   UNL     1     -28.787 -14.782  17.243  0.00  0.00    +0.149 HD
ATOM     10  H   UNL     1     -28.310 -12.868  21.521  0.00  0.00    +0.144 HD
ATOM     11  H   UNL     1     -28.557 -11.126  21.818  0.00  0.00    +0.144 HD
ENDROOT
BRANCH   5  12
ATOM     12  N   UNL     1     -30.054  -9.520  20.257  0.00  0.00    +0.061 N 
ATOM     13  O   UNL     1     -30.110  -9.704  21.619  0.00  0.00    -0.126 OA
ATOM     14  O   UNL     1     -30.027  -8.354  19.809  0.00  0.00    -0.126 OA
ENDBRANCH   5  12
BRANCH   1  15
ATOM     15  C   UNL     1     -29.593 -13.895  15.416  0.00  0.00    +0.073 C 
BRANCH  15  17
ATOM     16  C   UNL     1     -28.194 -14.595  13.390  0.00  0.00    +0.006 C 
ATOM     17  C   UNL     1     -28.893 -15.062  14.666  0.00  0.00    +0.019 C 
ENDBRANCH  15  17
BRANCH  15  18
ATOM     18  C   UNL     1     -31.133 -13.971  15.308  0.00  0.00    +0.019 C 
ATOM     19  C   UNL     1     -31.707 -13.047  14.235  0.00  0.00    +0.006 C 
ENDBRANCH  15  18
ENDBRANCH   1  15
TORSDOF 4
ENDMDL
