MODEL 1
REMARK VINA RESULT:    -4.731      0.000      0.000
REMARK INTER + INTRA:          -5.707
REMARK INTER:                  -5.837
REMARK INTRA:                   0.130
REMARK UNBOUND:                 0.130
REMARK  Name = 
REMARK  8 active torsions:
REMARK  status: ('A' for Active; 'I' for Inactive)
REMARK    1  A    between atoms: C_1  and  C_2
REMARK    2  A    between atoms: C_4  and  C_15
REMARK    3  A    between atoms: C_6  and  S_9
REMARK    4  A    between atoms: C_7  and  C_8
REMARK    5  A    between atoms: S_9  and  N_12
REMARK    6  A    between atoms: N_12  and  C_13
REMARK    7  A    between atoms: N_12  and  C_14
REMARK    8  A    between atoms: C_21  and  C_22
REMARK                            x       y       z     vdW  Elec       q    Type
REMARK                         _______ _______ _______ _____ _____    ______ ____
ROOT
ATOM      1  C   UNL     1     -30.660 -13.561  17.924  0.00  0.00    +0.247 C 
ATOM      2  O   UNL     1     -31.364 -14.276  18.687  0.00  0.00    -0.270 OA
ATOM      3  N   UNL     1     -29.480 -12.917  18.441  0.00  0.00    -0.290 N 
ATOM      4  C   UNL     1     -28.303 -12.634  17.635  0.00  0.00    +0.109 C 
ATOM      5  C   UNL     1     -27.271 -12.054  18.593  0.00  0.00    +0.021 C 
ATOM      6  C   UNL     1     -27.755 -12.402  19.999  0.00  0.00    +0.029 C 
ATOM      7  C   UNL     1     -29.247 -12.722  19.866  0.00  0.00    +0.107 C 
ENDROOT
BRANCH   7   8
ATOM      8  C   UNL     1     -30.113 -11.600  20.401  0.00  0.00    -0.023 A 
ATOM      9  C   UNL     1     -31.241 -11.874  21.202  0.00  0.00    +0.009 A 
ATOM     10  C   UNL     1     -32.048 -10.832  21.670  0.00  0.00    +0.050 A 
ATOM     11  C   UNL     1     -31.738  -9.510  21.342  0.00  0.00    +0.162 A 
ATOM     12  O   UNL     1     -32.514  -8.452  21.825  0.00  0.00    -0.485 OA
ATOM     13  C   UNL     1     -32.056  -7.100  21.734  0.00  0.00    +0.270 C 
ATOM     14  C   UNL     1     -31.337  -6.871  20.399  0.00  0.00    +0.270 C 
ATOM     15  O   UNL     1     -30.375  -7.903  20.168  0.00  0.00    -0.485 OA
ATOM     16  C   UNL     1     -30.639  -9.230  20.519  0.00  0.00    +0.162 A 
ATOM     17  C   UNL     1     -29.825 -10.267  20.058  0.00  0.00    +0.055 A 
ENDBRANCH   7   8
BRANCH   1  21
ATOM     18  C   UNL     1     -29.690 -14.238  13.075  0.00  0.00    +0.044 C 
ATOM     19  C   UNL     1     -30.623 -13.719  14.142  0.00  0.00    -0.045 A 
ATOM     20  C   UNL     1     -30.250 -13.872  15.485  0.00  0.00    +0.016 A 
ATOM     21  C   UNL     1     -31.067 -13.400  16.516  0.00  0.00    +0.039 A 
ATOM     22  C   UNL     1     -32.253 -12.734  16.202  0.00  0.00    +0.042 A 
ATOM     23  C   UNL     1     -32.661 -12.575  14.869  0.00  0.00    +0.109 A 
ATOM     24  C   UNL     1     -31.866 -13.109  13.821  0.00  0.00    -0.021 A 
ATOM     25  C   UNL     1     -32.297 -12.965  12.378  0.00  0.00    +0.046 C 
BRANCH  23  26
ATOM     26  S   UNL     1     -34.191 -11.730  14.559  0.00  0.00    +0.061 S 
ATOM     27  O   UNL     1     -35.062 -11.824  15.780  0.00  0.00    -0.153 OA
ATOM     28  O   UNL     1     -34.918 -12.381  13.413  0.00  0.00    -0.153 OA
BRANCH  26  29
ATOM     29  N   UNL     1     -33.876 -10.053  14.180  0.00  0.00    -0.183 NA
ATOM     30  C   UNL     1     -35.020  -9.493  13.449  0.00  0.00    +0.131 C 
ATOM     31  C   UNL     1     -33.657  -9.305  15.423  0.00  0.00    +0.131 C 
ENDBRANCH  26  29
ENDBRANCH  23  26
ENDBRANCH   1  21
TORSDOF 4
ENDMDL
MODEL 2
REMARK VINA RESULT:    -4.697      2.659      4.995
REMARK INTER + INTRA:          -5.665
REMARK INTER:                  -6.639
REMARK INTRA:                   0.974
REMARK UNBOUND:                 0.130
REMARK  Name = 
REMARK  8 active torsions:
REMARK  status: ('A' for Active; 'I' for Inactive)
REMARK    1  A    between atoms: C_1  and  C_2
REMARK    2  A    between atoms: C_4  and  C_15
REMARK    3  A    between atoms: C_6  and  S_9
REMARK    4  A    between atoms: C_7  and  C_8
REMARK    5  A    between atoms: S_9  and  N_12
REMARK    6  A    between atoms: N_12  and  C_13
REMARK    7  A    between atoms: N_12  and  C_14
REMARK    8  A    between atoms: C_21  and  C_22
REMARK                            x       y       z     vdW  Elec       q    Type
REMARK                         _______ _______ _______ _____ _____    ______ ____
ROOT
ATOM      1  C   UNL     1     -31.126  -9.595  16.783  0.00  0.00    +0.247 C 
ATOM      2  O   UNL     1     -29.950  -9.178  16.601  0.00  0.00    -0.270 OA
ATOM      3  N   UNL     1     -31.821  -9.255  17.997  0.00  0.00    -0.290 N 
ATOM      4  C   UNL     1     -33.265  -9.097  18.077  0.00  0.00    +0.109 C 
ATOM      5  C   UNL     1     -33.557  -8.640  19.500  0.00  0.00    +0.021 C 
ATOM      6  C   UNL     1     -32.224  -8.162  20.073  0.00  0.00    +0.029 C 
ATOM      7  C   UNL     1     -31.137  -8.787  19.195  0.00  0.00    +0.107 C 
ENDROOT
BRANCH   7   8
ATOM      8  C   UNL     1     -30.438  -9.934  19.896  0.00  0.00    -0.023 A 
ATOM      9  C   UNL     1     -30.756 -10.271  21.228  0.00  0.00    +0.009 A 
ATOM     10  C   UNL     1     -30.087 -11.317  21.873  0.00  0.00    +0.050 A 
ATOM     11  C   UNL     1     -29.097 -12.032  21.197  0.00  0.00    +0.162 A 
ATOM     12  O   UNL     1     -28.438 -13.100  21.814  0.00  0.00    -0.485 OA
ATOM     13  C   UNL     1     -27.636 -14.009  21.056  0.00  0.00    +0.270 C 
ATOM     14  C   UNL     1     -26.854 -13.252  19.975  0.00  0.00    +0.270 C 
ATOM     15  O   UNL     1     -27.725 -12.386  19.245  0.00  0.00    -0.485 OA
ATOM     16  C   UNL     1     -28.750 -11.684  19.885  0.00  0.00    +0.162 A 
ATOM     17  C   UNL     1     -29.423 -10.647  19.233  0.00  0.00    +0.055 A 
ENDBRANCH   7   8
BRANCH   1  21
ATOM     18  C   UNL     1     -34.890 -10.333  13.589  0.00  0.00    +0.044 C 
ATOM     19  C   UNL     1     -33.582 -10.810  14.171  0.00  0.00    -0.045 A 
ATOM     20  C   UNL     1     -32.966 -10.027  15.158  0.00  0.00    +0.016 A 
ATOM     21  C   UNL     1     -31.760 -10.424  15.741  0.00  0.00    +0.039 A 
ATOM     22  C   UNL     1     -31.180 -11.637  15.364  0.00  0.00    +0.042 A 
ATOM     23  C   UNL     1     -31.765 -12.439  14.371  0.00  0.00    +0.109 A 
ATOM     24  C   UNL     1     -32.956 -12.008  13.730  0.00  0.00    -0.021 A 
ATOM     25  C   UNL     1     -33.593 -12.848  12.644  0.00  0.00    +0.046 C 
BRANCH  23  26
ATOM     26  S   UNL     1     -30.955 -13.957  13.940  0.00  0.00    +0.061 S 
ATOM     27  O   UNL     1     -31.332 -14.334  12.534  0.00  0.00    -0.153 OA
ATOM     28  O   UNL     1     -31.404 -15.062  14.858  0.00  0.00    -0.153 OA
BRANCH  26  29
ATOM     29  N   UNL     1     -29.223 -13.761  14.058  0.00  0.00    -0.183 NA
ATOM     30  C   UNL     1     -28.738 -14.409  15.284  0.00  0.00    +0.131 C 
ATOM     31  C   UNL     1     -28.581 -14.360  12.884  0.00  0.00    +0.131 C 
ENDBRANCH  26  29
ENDBRANCH  23  26
ENDBRANCH   1  21
TORSDOF 4
ENDMDL
MODEL 3
REMARK VINA RESULT:    -4.478      2.400      8.019
REMARK INTER + INTRA:          -5.396
REMARK INTER:                  -5.607
REMARK INTRA:                   0.211
REMARK UNBOUND:                 0.130
REMARK  Name = 
REMARK  8 active torsions:
REMARK  status: ('A' for Active; 'I' for Inactive)
REMARK    1  A    between atoms: C_1  and  C_2
REMARK    2  A    between atoms: C_4  and  C_15
REMARK    3  A    between atoms: C_6  and  S_9
REMARK    4  A    between atoms: C_7  and  C_8
REMARK    5  A    between atoms: S_9  and  N_12
REMARK    6  A    between atoms: N_12  and  C_13
REMARK    7  A    between atoms: N_12  and  C_14
REMARK    8  A    between atoms: C_21  and  C_22
REMARK                            x       y       z     vdW  Elec       q    Type
REMARK                         _______ _______ _______ _____ _____    ______ ____
ROOT
ATOM      1  C   UNL     1     -34.543 -10.995  16.011  0.00  0.00    +0.247 C 
ATOM      2  O   UNL     1     -34.994 -12.122  16.349  0.00  0.00    -0.270 OA
ATOM      3  N   UNL     1     -34.551 -10.613  14.623  0.00  0.00    -0.290 N 
ATOM      4  C   UNL     1     -34.681  -9.236  14.171  0.00  0.00    +0.109 C 
ATOM      5  C   UNL     1     -34.749  -9.300  12.651  0.00  0.00    +0.021 C 
ATOM      6  C   UNL     1     -35.062 -10.753  12.302  0.00  0.00    +0.029 C 
ATOM      7  C   UNL     1     -34.691 -11.576  13.539  0.00  0.00    +0.107 C 
ENDROOT
BRANCH   7   8
ATOM      8  C   UNL     1     -33.400 -12.344  13.336  0.00  0.00    -0.023 A 
ATOM      9  C   UNL     1     -33.114 -12.969  12.105  0.00  0.00    +0.009 A 
ATOM     10  C   UNL     1     -31.931 -13.697  11.938  0.00  0.00    +0.050 A 
ATOM     11  C   UNL     1     -31.026 -13.808  12.996  0.00  0.00    +0.162 A 
ATOM     12  O   UNL     1     -29.824 -14.505  12.840  0.00  0.00    -0.485 OA
ATOM     13  C   UNL     1     -28.775 -14.392  13.805  0.00  0.00    +0.270 C 
ATOM     14  C   UNL     1     -29.360 -14.341  15.222  0.00  0.00    +0.270 C 
ATOM     15  O   UNL     1     -30.416 -13.380  15.290  0.00  0.00    -0.485 OA
ATOM     16  C   UNL     1     -31.316 -13.218  14.233  0.00  0.00    +0.162 A 
ATOM     17  C   UNL     1     -32.492 -12.482  14.402  0.00  0.00    +0.055 A 
ENDBRANCH   7   8
BRANCH   1  21
ATOM     18  C   UNL     1     -34.982  -6.798  18.677  0.00  0.00    +0.044 C 
ATOM     19  C   UNL     1     -34.204  -8.054  18.371  0.00  0.00    -0.045 A 
ATOM     20  C   UNL     1     -34.699  -8.922  17.387  0.00  0.00    +0.016 A 
ATOM     21  C   UNL     1     -34.015 -10.094  17.052  0.00  0.00    +0.039 A 
ATOM     22  C   UNL     1     -32.801 -10.384  17.679  0.00  0.00    +0.042 A 
ATOM     23  C   UNL     1     -32.284  -9.543  18.675  0.00  0.00    +0.109 A 
ATOM     24  C   UNL     1     -33.008  -8.385  19.064  0.00  0.00    -0.021 A 
ATOM     25  C   UNL     1     -32.477  -7.474  20.150  0.00  0.00    +0.046 C 
BRANCH  23  26
ATOM     26  S   UNL     1     -30.744  -9.994  19.432  0.00  0.00    +0.061 S 
ATOM     27  O   UNL     1     -31.001 -10.433  20.847  0.00  0.00    -0.153 OA
ATOM     28  O   UNL     1     -29.819  -8.806  19.471  0.00  0.00    -0.153 OA
BRANCH  26  29
ATOM     29  N   UNL     1     -29.998 -11.292  18.532  0.00  0.00    -0.183 NA
ATOM     30  C   UNL     1     -28.582 -10.978  18.300  0.00  0.00    +0.131 C 
ATOM     31  C   UNL     1     -30.119 -12.543  19.289  0.00  0.00    +0.131 C 
ENDBRANCH  26  29
ENDBRANCH  23  26
ENDBRANCH   1  21
TORSDOF 4
ENDMDL
MODEL 4
REMARK VINA RESULT:    -4.408      2.368      8.004
REMARK INTER + INTRA:          -5.309
REMARK INTER:                  -5.484
REMARK INTRA:                   0.175
REMARK UNBOUND:                 0.130
REMARK  Name = 
REMARK  8 active torsions:
REMARK  status: ('A' for Active; 'I' for Inactive)
REMARK    1  A    between atoms: C_1  and  C_2
REMARK    2  A    between atoms: C_4  and  C_15
REMARK    3  A    between atoms: C_6  and  S_9
REMARK    4  A    between atoms: C_7  and  C_8
REMARK    5  A    between atoms: S_9  and  N_12
REMARK    6  A    between atoms: N_12  and  C_13
REMARK    7  A    between atoms: N_12  and  C_14
REMARK    8  A    between atoms: C_21  and  C_22
REMARK                            x       y       z     vdW  Elec       q    Type
REMARK                         _______ _______ _______ _____ _____    ______ ____
ROOT
ATOM      1  C   UNL     1     -34.332 -11.007  17.084  0.00  0.00    +0.247 C 
ATOM      2  O   UNL     1     -35.062 -12.035  17.101  0.00  0.00    -0.270 OA
ATOM      3  N   UNL     1     -34.344 -10.145  15.931  0.00  0.00    -0.290 N 
ATOM      4  C   UNL     1     -34.105  -8.712  15.999  0.00  0.00    +0.109 C 
ATOM      5  C   UNL     1     -34.313  -8.187  14.585  0.00  0.00    +0.021 C 
ATOM      6  C   UNL     1     -35.062  -9.283  13.832  0.00  0.00    +0.029 C 
ATOM      7  C   UNL     1     -34.845 -10.571  14.631  0.00  0.00    +0.107 C 
ENDROOT
BRANCH   7   8
ATOM      8  C   UNL     1     -33.855 -11.495  13.952  0.00  0.00    -0.023 A 
ATOM      9  C   UNL     1     -34.131 -12.048  12.684  0.00  0.00    +0.009 A 
ATOM     10  C   UNL     1     -33.220 -12.919  12.077  0.00  0.00    +0.050 A 
ATOM     11  C   UNL     1     -32.030 -13.247  12.730  0.00  0.00    +0.162 A 
ATOM     12  O   UNL     1     -31.092 -14.092  12.127  0.00  0.00    -0.485 OA
ATOM     13  C   UNL     1     -29.766 -14.211  12.646  0.00  0.00    +0.270 C 
ATOM     14  C   UNL     1     -29.793 -14.199  14.180  0.00  0.00    +0.270 C 
ATOM     15  O   UNL     1     -30.583 -13.107  14.655  0.00  0.00    -0.485 OA
ATOM     16  C   UNL     1     -31.761 -12.729  14.003  0.00  0.00    +0.162 A 
ATOM     17  C   UNL     1     -32.663 -11.851  14.609  0.00  0.00    +0.055 A 
ENDBRANCH   7   8
BRANCH   1  21
ATOM     18  C   UNL     1     -33.346  -8.170  21.071  0.00  0.00    +0.044 C 
ATOM     19  C   UNL     1     -32.977  -9.350  20.207  0.00  0.00    -0.045 A 
ATOM     20  C   UNL     1     -33.782  -9.642  19.096  0.00  0.00    +0.016 A 
ATOM     21  C   UNL     1     -33.481 -10.715  18.253  0.00  0.00    +0.039 A 
ATOM     22  C   UNL     1     -32.341 -11.483  18.498  0.00  0.00    +0.042 A 
ATOM     23  C   UNL     1     -31.521 -11.225  19.607  0.00  0.00    +0.109 A 
ATOM     24  C   UNL     1     -31.859 -10.176  20.502  0.00  0.00    -0.021 A 
ATOM     25  C   UNL     1     -30.998  -9.894  21.715  0.00  0.00    +0.046 C 
BRANCH  23  26
ATOM     26  S   UNL     1     -30.101 -12.260  19.854  0.00  0.00    +0.061 S 
ATOM     27  O   UNL     1     -30.233 -13.490  18.999  0.00  0.00    -0.153 OA
ATOM     28  O   UNL     1     -30.023 -12.696  21.293  0.00  0.00    -0.153 OA
BRANCH  26  29
ATOM     29  N   UNL     1     -28.649 -11.389  19.423  0.00  0.00    -0.183 NA
ATOM     30  C   UNL     1     -27.553 -12.340  19.203  0.00  0.00    +0.131 C 
ATOM     31  C   UNL     1     -28.891 -10.608  18.205  0.00  0.00    +0.131 C 
ENDBRANCH  26  29
ENDBRANCH  23  26
ENDBRANCH   1  21
TORSDOF 4
ENDMDL
MODEL 5
REMARK VINA RESULT:    -3.334      2.755      8.020
REMARK INTER + INTRA:          -3.984
REMARK INTER:                  -4.843
REMARK INTRA:                   0.859
REMARK UNBOUND:                 0.130
REMARK  Name = 
REMARK  8 active torsions:
REMARK  status: ('A' for Active; 'I' for Inactive)
REMARK    1  A    between atoms: C_1  and  C_2
REMARK    2  A    between atoms: C_4  and  C_15
REMARK    3  A    between atoms: C_6  and  S_9
REMARK    4  A    between atoms: C_7  and  C_8
REMARK    5  A    between atoms: S_9  and  N_12
REMARK    6  A    between atoms: N_12  and  C_13
REMARK    7  A    between atoms: N_12  and  C_14
REMARK    8  A    between atoms: C_21  and  C_22
REMARK                            x       y       z     vdW  Elec       q    Type
REMARK                         _______ _______ _______ _____ _____    ______ ____
ROOT
ATOM      1  C   UNL     1     -34.646 -11.022  15.854  0.00  0.00    +0.247 C 
ATOM      2  O   UNL     1     -34.969 -12.079  16.462  0.00  0.00    -0.270 OA
ATOM      3  N   UNL     1     -34.392 -11.066  14.437  0.00  0.00    -0.290 N 
ATOM      4  C   UNL     1     -34.639  -9.945  13.544  0.00  0.00    +0.109 C 
ATOM      5  C   UNL     1     -34.336 -10.456  12.141  0.00  0.00    +0.021 C 
ATOM      6  C   UNL     1     -34.313 -11.979  12.240  0.00  0.00    +0.029 C 
ATOM      7  C   UNL     1     -34.110 -12.304  13.723  0.00  0.00    +0.107 C 
ENDROOT
BRANCH   7   8
ATOM      8  C   UNL     1     -32.699 -12.777  14.007  0.00  0.00    -0.023 A 
ATOM      9  C   UNL     1     -32.088 -12.528  15.254  0.00  0.00    +0.009 A 
ATOM     10  C   UNL     1     -30.776 -12.947  15.497  0.00  0.00    +0.050 A 
ATOM     11  C   UNL     1     -30.063 -13.615  14.498  0.00  0.00    +0.162 A 
ATOM     12  O   UNL     1     -28.760 -14.069  14.731  0.00  0.00    -0.485 OA
ATOM     13  C   UNL     1     -28.128 -14.987  13.836  0.00  0.00    +0.270 C 
ATOM     14  C   UNL     1     -28.487 -14.644  12.384  0.00  0.00    +0.270 C 
ATOM     15  O   UNL     1     -29.899 -14.468  12.248  0.00  0.00    -0.485 OA
ATOM     16  C   UNL     1     -30.648 -13.837  13.246  0.00  0.00    +0.162 A 
ATOM     17  C   UNL     1     -31.962 -13.429  13.002  0.00  0.00    +0.055 A 
ENDBRANCH   7   8
BRANCH   1  21
ATOM     18  C   UNL     1     -35.062  -6.051  16.009  0.00  0.00    +0.044 C 
ATOM     19  C   UNL     1     -34.731  -7.338  16.722  0.00  0.00    -0.045 A 
ATOM     20  C   UNL     1     -34.840  -8.542  16.010  0.00  0.00    +0.016 A 
ATOM     21  C   UNL     1     -34.534  -9.764  16.615  0.00  0.00    +0.039 A 
ATOM     22  C   UNL     1     -34.078  -9.783  17.935  0.00  0.00    +0.042 A 
ATOM     23  C   UNL     1     -33.970  -8.598  18.678  0.00  0.00    +0.109 A 
ATOM     24  C   UNL     1     -34.340  -7.361  18.088  0.00  0.00    -0.021 A 
ATOM     25  C   UNL     1     -34.249  -6.074  18.879  0.00  0.00    +0.046 C 
BRANCH  23  26
ATOM     26  S   UNL     1     -33.397  -8.713  20.354  0.00  0.00    +0.061 S 
ATOM     27  O   UNL     1     -34.365  -7.997  21.255  0.00  0.00    -0.153 OA
ATOM     28  O   UNL     1     -32.053  -8.049  20.488  0.00  0.00    -0.153 OA
BRANCH  26  29
ATOM     29  N   UNL     1     -33.275 -10.391  20.826  0.00  0.00    -0.183 NA
ATOM     30  C   UNL     1     -31.894 -10.688  21.226  0.00  0.00    +0.131 C 
ATOM     31  C   UNL     1     -34.190 -10.652  21.943  0.00  0.00    +0.131 C 
ENDBRANCH  26  29
ENDBRANCH  23  26
ENDBRANCH   1  21
TORSDOF 4
ENDMDL
MODEL 6
REMARK VINA RESULT:    -3.276      2.640      7.554
REMARK INTER + INTRA:          -3.912
REMARK INTER:                  -5.186
REMARK INTRA:                   1.273
REMARK UNBOUND:                 0.130
REMARK  Name = 
REMARK  8 active torsions:
REMARK  status: ('A' for Active; 'I' for Inactive)
REMARK    1  A    between atoms: C_1  and  C_2
REMARK    2  A    between atoms: C_4  and  C_15
REMARK    3  A    between atoms: C_6  and  S_9
REMARK    4  A    between atoms: C_7  and  C_8
REMARK    5  A    between atoms: S_9  and  N_12
REMARK    6  A    between atoms: N_12  and  C_13
REMARK    7  A    between atoms: N_12  and  C_14
REMARK    8  A    between atoms: C_21  and  C_22
REMARK                            x       y       z     vdW  Elec       q    Type
REMARK                         _______ _______ _______ _____ _____    ______ ____
ROOT
ATOM      1  C   UNL     1     -32.627 -12.873  17.605  0.00  0.00    +0.247 C 
ATOM      2  O   UNL     1     -32.984 -14.082  17.569  0.00  0.00    -0.270 OA
ATOM      3  N   UNL     1     -33.030 -11.981  16.549  0.00  0.00    -0.290 N 
ATOM      4  C   UNL     1     -33.256 -10.557  16.746  0.00  0.00    +0.109 C 
ATOM      5  C   UNL     1     -33.764 -10.028  15.411  0.00  0.00    +0.021 C 
ATOM      6  C   UNL     1     -34.197 -11.251  14.607  0.00  0.00    +0.029 C 
ATOM      7  C   UNL     1     -33.499 -12.452  15.253  0.00  0.00    +0.107 C 
ENDROOT
BRANCH   7   8
ATOM      8  C   UNL     1     -32.340 -12.948  14.413  0.00  0.00    -0.023 A 
ATOM      9  C   UNL     1     -32.448 -13.036  13.009  0.00  0.00    +0.009 A 
ATOM     10  C   UNL     1     -31.380 -13.519  12.245  0.00  0.00    +0.050 A 
ATOM     11  C   UNL     1     -30.199 -13.919  12.875  0.00  0.00    +0.162 A 
ATOM     12  O   UNL     1     -29.109 -14.376  12.127  0.00  0.00    -0.485 OA
ATOM     13  C   UNL     1     -27.816 -14.520  12.720  0.00  0.00    +0.270 C 
ATOM     14  C   UNL     1     -27.944 -15.062  14.149  0.00  0.00    +0.270 C 
ATOM     15  O   UNL     1     -28.918 -14.314  14.880  0.00  0.00    -0.485 OA
ATOM     16  C   UNL     1     -30.094 -13.866  14.270  0.00  0.00    +0.162 A 
ATOM     17  C   UNL     1     -31.154 -13.375  15.036  0.00  0.00    +0.055 A 
ENDBRANCH   7   8
BRANCH   1  21
ATOM     18  C   UNL     1     -28.821 -13.641  20.742  0.00  0.00    +0.044 C 
ATOM     19  C   UNL     1     -29.946 -12.750  20.275  0.00  0.00    -0.045 A 
ATOM     20  C   UNL     1     -30.736 -13.182  19.200  0.00  0.00    +0.016 A 
ATOM     21  C   UNL     1     -31.799 -12.405  18.732  0.00  0.00    +0.039 A 
ATOM     22  C   UNL     1     -32.102 -11.200  19.369  0.00  0.00    +0.042 A 
ATOM     23  C   UNL     1     -31.325 -10.734  20.440  0.00  0.00    +0.109 A 
ATOM     24  C   UNL     1     -30.205 -11.489  20.877  0.00  0.00    -0.021 A 
ATOM     25  C   UNL     1     -29.341 -10.995  22.018  0.00  0.00    +0.046 C 
BRANCH  23  26
ATOM     26  S   UNL     1     -31.769  -9.184  21.183  0.00  0.00    +0.061 S 
ATOM     27  O   UNL     1     -30.632  -8.706  22.042  0.00  0.00    -0.153 OA
ATOM     28  O   UNL     1     -32.979  -9.361  22.062  0.00  0.00    -0.153 OA
BRANCH  26  29
ATOM     29  N   UNL     1     -32.111  -8.006  19.939  0.00  0.00    -0.183 NA
ATOM     30  C   UNL     1     -33.564  -7.879  19.770  0.00  0.00    +0.131 C 
ATOM     31  C   UNL     1     -31.533  -6.713  20.319  0.00  0.00    +0.131 C 
ENDBRANCH  26  29
ENDBRANCH  23  26
ENDBRANCH   1  21
TORSDOF 4
ENDMDL
MODEL 7
REMARK VINA RESULT:    -2.839      2.776      6.017
REMARK INTER + INTRA:          -3.373
REMARK INTER:                  -4.196
REMARK INTRA:                   0.823
REMARK UNBOUND:                 0.130
REMARK  Name = 
REMARK  8 active torsions:
REMARK  status: ('A' for Active; 'I' for Inactive)
REMARK    1  A    between atoms: C_1  and  C_2
REMARK    2  A    between atoms: C_4  and  C_15
REMARK    3  A    between atoms: C_6  and  S_9
REMARK    4  A    between atoms: C_7  and  C_8
REMARK    5  A    between atoms: S_9  and  N_12
REMARK    6  A    between atoms: N_12  and  C_13
REMARK    7  A    between atoms: N_12  and  C_14
REMARK    8  A    between atoms: C_21  and  C_22
REMARK                            x       y       z     vdW  Elec       q    Type
REMARK                         _______ _______ _______ _____ _____    ______ ____
ROOT
ATOM      1  C   UNL     1     -33.729 -11.352  16.836  0.00  0.00    +0.247 C 
ATOM      2  O   UNL     1     -34.479 -12.127  17.491  0.00  0.00    -0.270 OA
ATOM      3  N   UNL     1     -32.581 -11.885  16.151  0.00  0.00    -0.290 N 
ATOM      4  C   UNL     1     -32.043 -11.315  14.925  0.00  0.00    +0.109 C 
ATOM      5  C   UNL     1     -30.913 -12.241  14.495  0.00  0.00    +0.021 C 
ATOM      6  C   UNL     1     -31.107 -13.538  15.277  0.00  0.00    +0.029 C 
ATOM      7  C   UNL     1     -32.005 -13.185  16.466  0.00  0.00    +0.107 C 
ENDROOT
BRANCH   7   8
ATOM      8  C   UNL     1     -31.223 -13.124  17.763  0.00  0.00    -0.023 A 
ATOM      9  C   UNL     1     -31.845 -12.736  18.967  0.00  0.00    +0.009 A 
ATOM     10  C   UNL     1     -31.108 -12.658  20.153  0.00  0.00    +0.050 A 
ATOM     11  C   UNL     1     -29.745 -12.966  20.147  0.00  0.00    +0.162 A 
ATOM     12  O   UNL     1     -28.997 -12.924  21.328  0.00  0.00    -0.485 OA
ATOM     13  C   UNL     1     -27.689 -13.499  21.393  0.00  0.00    +0.270 C 
ATOM     14  C   UNL     1     -26.928 -13.235  20.087  0.00  0.00    +0.270 C 
ATOM     15  O   UNL     1     -27.737 -13.580  18.961  0.00  0.00    -0.485 OA
ATOM     16  C   UNL     1     -29.111 -13.320  18.950  0.00  0.00    +0.162 A 
ATOM     17  C   UNL     1     -29.845 -13.408  17.765  0.00  0.00    +0.055 A 
ENDBRANCH   7   8
BRANCH   1  21
ATOM     18  C   UNL     1     -35.062  -7.334  14.192  0.00  0.00    +0.044 C 
ATOM     19  C   UNL     1     -34.704  -7.936  15.528  0.00  0.00    -0.045 A 
ATOM     20  C   UNL     1     -34.402  -9.304  15.585  0.00  0.00    +0.016 A 
ATOM     21  C   UNL     1     -34.051  -9.914  16.792  0.00  0.00    +0.039 A 
ATOM     22  C   UNL     1     -33.962  -9.140  17.952  0.00  0.00    +0.042 A 
ATOM     23  C   UNL     1     -34.269  -7.772  17.932  0.00  0.00    +0.109 A 
ATOM     24  C   UNL     1     -34.688  -7.162  16.720  0.00  0.00    -0.021 A 
ATOM     25  C   UNL     1     -35.042  -5.691  16.681  0.00  0.00    +0.046 C 
BRANCH  23  26
ATOM     26  S   UNL     1     -34.146  -6.866  19.453  0.00  0.00    +0.061 S 
ATOM     27  O   UNL     1     -34.829  -7.643  20.545  0.00  0.00    -0.153 OA
ATOM     28  O   UNL     1     -34.839  -5.536  19.321  0.00  0.00    -0.153 OA
BRANCH  26  29
ATOM     29  N   UNL     1     -32.466  -6.617  19.862  0.00  0.00    -0.183 NA
ATOM     30  C   UNL     1     -32.183  -5.177  19.920  0.00  0.00    +0.131 C 
ATOM     31  C   UNL     1     -32.181  -7.239  21.160  0.00  0.00    +0.131 C 
ENDBRANCH  26  29
ENDBRANCH  23  26
ENDBRANCH   1  21
TORSDOF 4
ENDMDL
