MODEL 1
REMARK VINA RESULT: 516235.438      0.000      0.000
REMARK INTER + INTRA:      697310.082
REMARK INTER:              697310.180
REMARK INTRA:                  -0.098
REMARK UNBOUND:                -0.098
REMARK  Name = 
REMARK  7 active torsions:
REMARK  status: ('A' for Active; 'I' for Inactive)
REMARK    1  A    between atoms: C_1  and  C_2
REMARK    2  A    between atoms: C_2  and  O_3
REMARK    3  A    between atoms: O_3  and  C_4
REMARK    4  A    between atoms: C_7  and  N_10
REMARK    5  A    between atoms: C_11  and  C_13
REMARK    6  A    between atoms: C_16  and  N_19
REMARK    7  A    between atoms: C_20  and  C_22
REMARK                            x       y       z     vdW  Elec       q    Type
REMARK                         _______ _______ _______ _____ _____    ______ ____
ROOT
ATOM      1  C   UNL     1     -29.548  -7.981  15.088  0.00  0.00    +0.037 A 
ATOM      2  C   UNL     1     -29.348  -8.194  13.713  0.00  0.00    +0.015 A 
ATOM      3  C   UNL     1     -30.145  -9.104  13.011  0.00  0.00    +0.024 A 
ATOM      4  C   UNL     1     -31.163  -9.814  13.670  0.00  0.00    +0.034 A 
ATOM      5  C   UNL     1     -31.343  -9.624  15.047  0.00  0.00    +0.024 A 
ATOM      6  C   UNL     1     -30.548  -8.715  15.749  0.00  0.00    +0.015 A 
ENDROOT
BRANCH   1   8
ATOM      7  N   UNL     1     -27.444  -7.433  16.403  0.00  0.00    -0.281 N 
ATOM      8  C   UNL     1     -28.703  -7.022  15.841  0.00  0.00    +0.248 C 
ATOM      9  O   UNL     1     -29.074  -5.821  15.951  0.00  0.00    -0.270 OA
ATOM     10  H   UNL     1     -26.936  -8.221  15.945  0.00  0.00    +0.155 HD
BRANCH   7  14
ATOM     11  C   UNL     1     -25.525  -5.308  19.557  0.00  0.00    +0.121 A 
ATOM     12  C   UNL     1     -26.670  -6.075  19.800  0.00  0.00    +0.047 A 
ATOM     13  C   UNL     1     -27.293  -6.771  18.760  0.00  0.00    +0.027 A 
ATOM     14  C   UNL     1     -26.773  -6.724  17.459  0.00  0.00    +0.034 A 
ATOM     15  C   UNL     1     -25.637  -5.935  17.208  0.00  0.00    +0.027 A 
ATOM     16  C   UNL     1     -25.014  -5.236  18.246  0.00  0.00    +0.047 A 
BRANCH  11  17
ATOM     17  O   UNL     1     -24.941  -4.629  20.640  0.00  0.00    -0.492 OA
BRANCH  17  19
ATOM     18  C   UNL     1     -25.033  -6.599  22.061  0.00  0.00    +0.048 C 
ATOM     19  C   UNL     1     -24.929  -5.079  21.994  0.00  0.00    +0.225 C 
ENDBRANCH  17  19
ENDBRANCH  11  17
ENDBRANCH   7  14
ENDBRANCH   1   8
BRANCH   4  20
ATOM     20  N   UNL     1     -31.981 -10.771  12.975  0.00  0.00    -0.282 N 
ATOM     21  C   UNL     1     -31.676 -12.174  12.896  0.00  0.00    +0.248 C 
ATOM     22  O   UNL     1     -30.490 -12.566  13.071  0.00  0.00    -0.270 OA
ATOM     23  H   UNL     1     -32.777 -10.408  12.402  0.00  0.00    +0.155 HD
BRANCH  21  24
ATOM     24  C   UNL     1     -32.729 -13.164  12.561  0.00  0.00    +0.037 A 
ATOM     25  C   UNL     1     -34.090 -12.803  12.570  0.00  0.00    +0.013 A 
ATOM     26  C   UNL     1     -35.074 -13.747  12.260  0.00  0.00    +0.001 A 
ATOM     27  C   UNL     1     -34.715 -15.058  11.941  0.00  0.00    +0.000 A 
ATOM     28  C   UNL     1     -33.369 -15.430  11.938  0.00  0.00    +0.001 A 
ATOM     29  C   UNL     1     -32.380 -14.491  12.250  0.00  0.00    +0.013 A 
ENDBRANCH  21  24
ENDBRANCH   4  20
TORSDOF 6
ENDMDL
