MODEL 1
REMARK VINA RESULT:    -4.949      0.000      0.000
REMARK INTER + INTRA:          -5.686
REMARK INTER:                  -5.817
REMARK INTRA:                   0.132
REMARK UNBOUND:                 0.132
REMARK  Name = 
REMARK  5 active torsions:
REMARK  status: ('A' for Active; 'I' for Inactive)
REMARK    1  A    between atoms: C_1  and  C_2
REMARK    2  A    between atoms: C_5  and  S_11
REMARK    3  A    between atoms: C_7  and  C_8
REMARK    4  A    between atoms: S_11  and  N_14
REMARK    5  A    between atoms: C_18  and  C_19
REMARK                            x       y       z     vdW  Elec       q    Type
REMARK                         _______ _______ _______ _____ _____    ______ ____
ROOT
ATOM      1  C   UNL     1     -28.720 -15.062  14.145  0.00  0.00    +0.044 C 
ATOM      2  C   UNL     1     -29.915 -14.176  14.384  0.00  0.00    -0.038 A 
ATOM      3  C   UNL     1     -30.702 -13.802  13.282  0.00  0.00    +0.006 A 
ATOM      4  C   UNL     1     -31.845 -13.020  13.454  0.00  0.00    +0.029 A 
ATOM      5  C   UNL     1     -32.222 -12.599  14.733  0.00  0.00    +0.106 A 
ATOM      6  C   UNL     1     -31.432 -12.941  15.836  0.00  0.00    +0.041 A 
ATOM      7  C   UNL     1     -30.266 -13.709  15.677  0.00  0.00    +0.041 A 
ENDROOT
BRANCH   7   8
ATOM      8  C   UNL     1     -29.456 -14.008  16.878  0.00  0.00    +0.242 C 
ATOM      9  N   UNL     1     -30.000 -14.762  17.963  0.00  0.00    -0.325 N 
ATOM     10  O   UNL     1     -28.254 -13.635  16.927  0.00  0.00    -0.270 OA
ATOM     11  H   UNL     1     -30.934 -15.222  17.883  0.00  0.00    +0.145 HD
ATOM     12  H   UNL     1     -29.430 -14.932  18.821  0.00  0.00    +0.145 HD
ENDBRANCH   7   8
BRANCH   5  13
ATOM     13  S   UNL     1     -33.656 -11.601  14.964  0.00  0.00    +0.061 S 
ATOM     14  O   UNL     1     -34.624 -11.835  13.838  0.00  0.00    -0.153 OA
ATOM     15  O   UNL     1     -34.315 -12.014  16.249  0.00  0.00    -0.153 OA
BRANCH  13  16
ATOM     16  N   UNL     1     -33.190  -9.914  15.054  0.00  0.00    -0.172 NA
ATOM     17  C   UNL     1     -34.344  -9.015  15.242  0.00  0.00    +0.137 C 
ATOM     18  C   UNL     1     -34.774  -8.918  16.714  0.00  0.00    +0.177 C 
ATOM     19  O   UNL     1     -33.685  -8.545  17.531  0.00  0.00    -0.374 OA
ATOM     20  C   UNL     1     -32.686  -9.545  17.481  0.00  0.00    +0.131 C 
ATOM     21  C   UNL     1     -31.568  -9.169  18.452  0.00  0.00    +0.039 C 
ATOM     22  C   UNL     1     -32.127  -9.675  16.048  0.00  0.00    +0.140 C 
ENDBRANCH  13  16
ENDBRANCH   5  13
TORSDOF 3
ENDMDL
MODEL 2
REMARK VINA RESULT:    -4.589      3.047      4.821
REMARK INTER + INTRA:          -5.262
REMARK INTER:                  -5.043
REMARK INTRA:                  -0.219
REMARK UNBOUND:                 0.132
REMARK  Name = 
REMARK  5 active torsions:
REMARK  status: ('A' for Active; 'I' for Inactive)
REMARK    1  A    between atoms: C_1  and  C_2
REMARK    2  A    between atoms: C_5  and  S_11
REMARK    3  A    between atoms: C_7  and  C_8
REMARK    4  A    between atoms: S_11  and  N_14
REMARK    5  A    between atoms: C_18  and  C_19
REMARK                            x       y       z     vdW  Elec       q    Type
REMARK                         _______ _______ _______ _____ _____    ______ ____
ROOT
ATOM      1  C   UNL     1     -29.905 -15.062  12.188  0.00  0.00    +0.044 C 
ATOM      2  C   UNL     1     -30.144 -14.467  13.552  0.00  0.00    -0.038 A 
ATOM      3  C   UNL     1     -29.352 -14.911  14.623  0.00  0.00    +0.006 A 
ATOM      4  C   UNL     1     -29.501 -14.360  15.897  0.00  0.00    +0.029 A 
ATOM      5  C   UNL     1     -30.445 -13.353  16.121  0.00  0.00    +0.106 A 
ATOM      6  C   UNL     1     -31.260 -12.921  15.068  0.00  0.00    +0.041 A 
ATOM      7  C   UNL     1     -31.138 -13.481  13.785  0.00  0.00    +0.041 A 
ENDROOT
BRANCH   7   8
ATOM      8  C   UNL     1     -32.051 -13.005  12.724  0.00  0.00    +0.242 C 
ATOM      9  N   UNL     1     -33.367 -13.543  12.590  0.00  0.00    -0.325 N 
ATOM     10  O   UNL     1     -31.681 -12.078  11.954  0.00  0.00    -0.270 OA
ATOM     11  H   UNL     1     -33.758 -14.191  13.308  0.00  0.00    +0.145 HD
ATOM     12  H   UNL     1     -33.986 -13.225  11.811  0.00  0.00    +0.145 HD
ENDBRANCH   7   8
BRANCH   5  13
ATOM     13  S   UNL     1     -30.653 -12.657  17.726  0.00  0.00    +0.061 S 
ATOM     14  O   UNL     1     -31.782 -11.665  17.707  0.00  0.00    -0.153 OA
ATOM     15  O   UNL     1     -31.010 -13.764  18.677  0.00  0.00    -0.153 OA
BRANCH  13  16
ATOM     16  N   UNL     1     -29.157 -11.900  18.236  0.00  0.00    -0.172 NA
ATOM     17  C   UNL     1     -29.366 -10.557  18.809  0.00  0.00    +0.137 C 
ATOM     18  C   UNL     1     -29.777 -10.612  20.288  0.00  0.00    +0.177 C 
ATOM     19  O   UNL     1     -28.847 -11.360  21.041  0.00  0.00    -0.374 OA
ATOM     20  C   UNL     1     -28.834 -12.700  20.589  0.00  0.00    +0.131 C 
ATOM     21  C   UNL     1     -27.899 -13.510  21.486  0.00  0.00    +0.039 C 
ATOM     22  C   UNL     1     -28.358 -12.768  19.122  0.00  0.00    +0.140 C 
ENDBRANCH  13  16
ENDBRANCH   5  13
TORSDOF 3
ENDMDL
MODEL 3
REMARK VINA RESULT:    -4.570      2.425      5.338
REMARK INTER + INTRA:          -5.240
REMARK INTER:                  -5.255
REMARK INTRA:                   0.015
REMARK UNBOUND:                 0.132
REMARK  Name = 
REMARK  5 active torsions:
REMARK  status: ('A' for Active; 'I' for Inactive)
REMARK    1  A    between atoms: C_1  and  C_2
REMARK    2  A    between atoms: C_5  and  S_11
REMARK    3  A    between atoms: C_7  and  C_8
REMARK    4  A    between atoms: S_11  and  N_14
REMARK    5  A    between atoms: C_18  and  C_19
REMARK                            x       y       z     vdW  Elec       q    Type
REMARK                         _______ _______ _______ _____ _____    ______ ____
ROOT
ATOM      1  C   UNL     1     -33.235 -12.362  11.938  0.00  0.00    +0.044 C 
ATOM      2  C   UNL     1     -32.389 -12.728  13.130  0.00  0.00    -0.038 A 
ATOM      3  C   UNL     1     -31.316 -13.614  12.941  0.00  0.00    +0.006 A 
ATOM      4  C   UNL     1     -30.474 -13.951  14.002  0.00  0.00    +0.029 A 
ATOM      5  C   UNL     1     -30.690 -13.405  15.271  0.00  0.00    +0.106 A 
ATOM      6  C   UNL     1     -31.772 -12.542  15.479  0.00  0.00    +0.041 A 
ATOM      7  C   UNL     1     -32.642 -12.211  14.427  0.00  0.00    +0.041 A 
ENDROOT
BRANCH   7   8
ATOM      8  C   UNL     1     -33.787 -11.321  14.719  0.00  0.00    +0.242 C 
ATOM      9  N   UNL     1     -33.739  -9.931  14.392  0.00  0.00    -0.325 N 
ATOM     10  O   UNL     1     -34.838 -11.802  15.220  0.00  0.00    -0.270 OA
ATOM     11  H   UNL     1     -32.951  -9.537  13.832  0.00  0.00    +0.145 HD
ATOM     12  H   UNL     1     -34.539  -9.306  14.640  0.00  0.00    +0.145 HD
ENDBRANCH   7   8
BRANCH   5  13
ATOM     13  S   UNL     1     -29.642 -13.831  16.623  0.00  0.00    +0.061 S 
ATOM     14  O   UNL     1     -30.222 -15.003  17.364  0.00  0.00    -0.153 OA
ATOM     15  O   UNL     1     -28.303 -14.233  16.071  0.00  0.00    -0.153 OA
BRANCH  13  16
ATOM     16  N   UNL     1     -29.454 -12.445  17.679  0.00  0.00    -0.172 NA
ATOM     17  C   UNL     1     -30.546 -12.330  18.664  0.00  0.00    +0.137 C 
ATOM     18  C   UNL     1     -30.321 -13.226  19.891  0.00  0.00    +0.177 C 
ATOM     19  O   UNL     1     -29.063 -12.969  20.477  0.00  0.00    -0.374 OA
ATOM     20  C   UNL     1     -28.035 -13.295  19.561  0.00  0.00    +0.131 C 
ATOM     21  C   UNL     1     -26.686 -13.109  20.253  0.00  0.00    +0.039 C 
ATOM     22  C   UNL     1     -28.123 -12.394  18.311  0.00  0.00    +0.140 C 
ENDBRANCH  13  16
ENDBRANCH   5  13
TORSDOF 3
ENDMDL
MODEL 4
REMARK VINA RESULT:    -4.418      2.700      3.881
REMARK INTER + INTRA:          -5.062
REMARK INTER:                  -4.825
REMARK INTRA:                  -0.237
REMARK UNBOUND:                 0.132
REMARK  Name = 
REMARK  5 active torsions:
REMARK  status: ('A' for Active; 'I' for Inactive)
REMARK    1  A    between atoms: C_1  and  C_2
REMARK    2  A    between atoms: C_5  and  S_11
REMARK    3  A    between atoms: C_7  and  C_8
REMARK    4  A    between atoms: S_11  and  N_14
REMARK    5  A    between atoms: C_18  and  C_19
REMARK                            x       y       z     vdW  Elec       q    Type
REMARK                         _______ _______ _______ _____ _____    ______ ____
ROOT
ATOM      1  C   UNL     1     -33.150 -13.554  12.033  0.00  0.00    +0.044 C 
ATOM      2  C   UNL     1     -32.684 -12.669  13.160  0.00  0.00    -0.038 A 
ATOM      3  C   UNL     1     -33.457 -11.543  13.489  0.00  0.00    +0.006 A 
ATOM      4  C   UNL     1     -33.095 -10.715  14.554  0.00  0.00    +0.029 A 
ATOM      5  C   UNL     1     -31.953 -11.001  15.308  0.00  0.00    +0.106 A 
ATOM      6  C   UNL     1     -31.159 -12.103  14.974  0.00  0.00    +0.041 A 
ATOM      7  C   UNL     1     -31.498 -12.933  13.892  0.00  0.00    +0.041 A 
ENDROOT
BRANCH   7   8
ATOM      8  C   UNL     1     -30.600 -14.063  13.568  0.00  0.00    +0.242 C 
ATOM      9  N   UNL     1     -29.742 -14.018  12.427  0.00  0.00    -0.325 N 
ATOM     10  O   UNL     1     -30.555 -15.062  14.336  0.00  0.00    -0.270 OA
ATOM     11  H   UNL     1     -29.638 -13.143  11.868  0.00  0.00    +0.145 HD
ATOM     12  H   UNL     1     -29.142 -14.840  12.189  0.00  0.00    +0.145 HD
ENDBRANCH   7   8
BRANCH   5  13
ATOM     13  S   UNL     1     -31.477  -9.958  16.647  0.00  0.00    +0.061 S 
ATOM     14  O   UNL     1     -30.273  -9.149  16.256  0.00  0.00    -0.153 OA
ATOM     15  O   UNL     1     -32.611  -9.014  16.934  0.00  0.00    -0.153 OA
BRANCH  13  16
ATOM     16  N   UNL     1     -31.150 -10.934  18.065  0.00  0.00    -0.172 NA
ATOM     17  C   UNL     1     -29.990 -10.445  18.835  0.00  0.00    +0.137 C 
ATOM     18  C   UNL     1     -30.363  -9.295  19.782  0.00  0.00    +0.177 C 
ATOM     19  O   UNL     1     -31.431  -9.667  20.628  0.00  0.00    -0.374 OA
ATOM     20  C   UNL     1     -32.585  -9.924  19.853  0.00  0.00    +0.131 C 
ATOM     21  C   UNL     1     -33.751 -10.221  20.795  0.00  0.00    +0.039 C 
ATOM     22  C   UNL     1     -32.344 -11.122  18.909  0.00  0.00    +0.140 C 
ENDBRANCH  13  16
ENDBRANCH   5  13
TORSDOF 3
ENDMDL
MODEL 5
REMARK VINA RESULT:    -4.354      3.305      4.981
REMARK INTER + INTRA:          -4.985
REMARK INTER:                  -4.711
REMARK INTRA:                  -0.274
REMARK UNBOUND:                 0.132
REMARK  Name = 
REMARK  5 active torsions:
REMARK  status: ('A' for Active; 'I' for Inactive)
REMARK    1  A    between atoms: C_1  and  C_2
REMARK    2  A    between atoms: C_5  and  S_11
REMARK    3  A    between atoms: C_7  and  C_8
REMARK    4  A    between atoms: S_11  and  N_14
REMARK    5  A    between atoms: C_18  and  C_19
REMARK                            x       y       z     vdW  Elec       q    Type
REMARK                         _______ _______ _______ _____ _____    ______ ____
ROOT
ATOM      1  C   UNL     1     -32.560 -12.024  13.588  0.00  0.00    +0.044 C 
ATOM      2  C   UNL     1     -31.719 -11.738  14.805  0.00  0.00    -0.038 A 
ATOM      3  C   UNL     1     -31.870 -10.496  15.444  0.00  0.00    +0.006 A 
ATOM      4  C   UNL     1     -31.149 -10.197  16.601  0.00  0.00    +0.029 A 
ATOM      5  C   UNL     1     -30.265 -11.137  17.140  0.00  0.00    +0.106 A 
ATOM      6  C   UNL     1     -30.085 -12.367  16.499  0.00  0.00    +0.041 A 
ATOM      7  C   UNL     1     -30.787 -12.674  15.320  0.00  0.00    +0.041 A 
ENDROOT
BRANCH   7   8
ATOM      8  C   UNL     1     -30.528 -13.978  14.671  0.00  0.00    +0.242 C 
ATOM      9  N   UNL     1     -29.640 -14.081  13.557  0.00  0.00    -0.325 N 
ATOM     10  O   UNL     1     -31.060 -15.021  15.136  0.00  0.00    -0.270 OA
ATOM     11  H   UNL     1     -29.062 -13.267  13.253  0.00  0.00    +0.145 HD
ATOM     12  H   UNL     1     -29.498 -15.002  13.084  0.00  0.00    +0.145 HD
ENDBRANCH   7   8
BRANCH   5  13
ATOM     13  S   UNL     1     -29.339 -10.768  18.594  0.00  0.00    +0.061 S 
ATOM     14  O   UNL     1     -27.870 -10.908  18.309  0.00  0.00    -0.153 OA
ATOM     15  O   UNL     1     -29.614  -9.341  18.977  0.00  0.00    -0.153 OA
BRANCH  13  16
ATOM     16  N   UNL     1     -29.835 -11.835  19.892  0.00  0.00    -0.172 NA
ATOM     17  C   UNL     1     -29.208 -11.488  21.182  0.00  0.00    +0.137 C 
ATOM     18  C   UNL     1     -29.950 -10.355  21.905  0.00  0.00    +0.177 C 
ATOM     19  O   UNL     1     -31.318 -10.668  22.058  0.00  0.00    -0.374 OA
ATOM     20  C   UNL     1     -31.926 -10.784  20.787  0.00  0.00    +0.131 C 
ATOM     21  C   UNL     1     -33.424 -11.018  20.980  0.00  0.00    +0.039 C 
ATOM     22  C   UNL     1     -31.301 -11.954  19.997  0.00  0.00    +0.140 C 
ENDBRANCH  13  16
ENDBRANCH   5  13
TORSDOF 3
ENDMDL
MODEL 6
REMARK VINA RESULT:    -4.338      3.137      5.357
REMARK INTER + INTRA:          -4.967
REMARK INTER:                  -4.855
REMARK INTRA:                  -0.112
REMARK UNBOUND:                 0.132
REMARK  Name = 
REMARK  5 active torsions:
REMARK  status: ('A' for Active; 'I' for Inactive)
REMARK    1  A    between atoms: C_1  and  C_2
REMARK    2  A    between atoms: C_5  and  S_11
REMARK    3  A    between atoms: C_7  and  C_8
REMARK    4  A    between atoms: S_11  and  N_14
REMARK    5  A    between atoms: C_18  and  C_19
REMARK                            x       y       z     vdW  Elec       q    Type
REMARK                         _______ _______ _______ _____ _____    ______ ____
ROOT
ATOM      1  C   UNL     1     -31.418 -13.807  13.428  0.00  0.00    +0.044 C 
ATOM      2  C   UNL     1     -30.770 -13.467  14.746  0.00  0.00    -0.038 A 
ATOM      3  C   UNL     1     -29.733 -14.291  15.213  0.00  0.00    +0.006 A 
ATOM      4  C   UNL     1     -29.068 -13.994  16.404  0.00  0.00    +0.029 A 
ATOM      5  C   UNL     1     -29.429 -12.867  17.148  0.00  0.00    +0.106 A 
ATOM      6  C   UNL     1     -30.479 -12.053  16.709  0.00  0.00    +0.041 A 
ATOM      7  C   UNL     1     -31.173 -12.351  15.523  0.00  0.00    +0.041 A 
ENDROOT
BRANCH   7   8
ATOM      8  C   UNL     1     -32.295 -11.470  15.130  0.00  0.00    +0.242 C 
ATOM      9  N   UNL     1     -33.640 -11.787  15.491  0.00  0.00    -0.325 N 
ATOM     10  O   UNL     1     -32.058 -10.401  14.507  0.00  0.00    -0.270 OA
ATOM     11  H   UNL     1     -33.850 -12.575  16.142  0.00  0.00    +0.145 HD
ATOM     12  H   UNL     1     -34.426 -11.177  15.172  0.00  0.00    +0.145 HD
ENDBRANCH   7   8
BRANCH   5  13
ATOM     13  S   UNL     1     -28.607 -12.488  18.660  0.00  0.00    +0.061 S 
ATOM     14  O   UNL     1     -27.178 -12.949  18.590  0.00  0.00    -0.153 OA
ATOM     15  O   UNL     1     -28.616 -10.996  18.840  0.00  0.00    -0.153 OA
BRANCH  13  16
ATOM     16  N   UNL     1     -29.450 -13.249  19.995  0.00  0.00    -0.172 NA
ATOM     17  C   UNL     1     -28.855 -12.920  21.304  0.00  0.00    +0.137 C 
ATOM     18  C   UNL     1     -29.341 -11.566  21.841  0.00  0.00    +0.177 C 
ATOM     19  O   UNL     1     -30.751 -11.519  21.884  0.00  0.00    -0.374 OA
ATOM     20  C   UNL     1     -31.272 -11.629  20.574  0.00  0.00    +0.131 C 
ATOM     21  C   UNL     1     -32.790 -11.470  20.636  0.00  0.00    +0.039 C 
ATOM     22  C   UNL     1     -30.903 -12.997  19.961  0.00  0.00    +0.140 C 
ENDBRANCH  13  16
ENDBRANCH   5  13
TORSDOF 3
ENDMDL
MODEL 7
REMARK VINA RESULT:    -4.321      3.007      4.881
REMARK INTER + INTRA:          -4.947
REMARK INTER:                  -4.885
REMARK INTRA:                  -0.062
REMARK UNBOUND:                 0.132
REMARK  Name = 
REMARK  5 active torsions:
REMARK  status: ('A' for Active; 'I' for Inactive)
REMARK    1  A    between atoms: C_1  and  C_2
REMARK    2  A    between atoms: C_5  and  S_11
REMARK    3  A    between atoms: C_7  and  C_8
REMARK    4  A    between atoms: S_11  and  N_14
REMARK    5  A    between atoms: C_18  and  C_19
REMARK                            x       y       z     vdW  Elec       q    Type
REMARK                         _______ _______ _______ _____ _____    ______ ____
ROOT
ATOM      1  C   UNL     1     -32.906 -12.632  11.948  0.00  0.00    +0.044 C 
ATOM      2  C   UNL     1     -32.357 -12.706  13.350  0.00  0.00    -0.038 A 
ATOM      3  C   UNL     1     -33.018 -11.995  14.365  0.00  0.00    +0.006 A 
ATOM      4  C   UNL     1     -32.579 -12.065  15.688  0.00  0.00    +0.029 A 
ATOM      5  C   UNL     1     -31.470 -12.851  16.019  0.00  0.00    +0.106 A 
ATOM      6  C   UNL     1     -30.786 -13.542  15.013  0.00  0.00    +0.041 A 
ATOM      7  C   UNL     1     -31.202 -13.464  13.673  0.00  0.00    +0.041 A 
ENDROOT
BRANCH   7   8
ATOM      8  C   UNL     1     -30.417 -14.191  12.653  0.00  0.00    +0.242 C 
ATOM      9  N   UNL     1     -29.015 -13.960  12.500  0.00  0.00    -0.325 N 
ATOM     10  O   UNL     1     -30.980 -15.062  11.938  0.00  0.00    -0.270 OA
ATOM     11  H   UNL     1     -28.491 -13.367  13.181  0.00  0.00    +0.145 HD
ATOM     12  H   UNL     1     -28.482 -14.451  11.749  0.00  0.00    +0.145 HD
ENDBRANCH   7   8
BRANCH   5  13
ATOM     13  S   UNL     1     -30.897 -12.939  17.683  0.00  0.00    +0.061 S 
ATOM     14  O   UNL     1     -31.956 -12.417  18.613  0.00  0.00    -0.153 OA
ATOM     15  O   UNL     1     -30.641 -14.382  18.017  0.00  0.00    -0.153 OA
BRANCH  13  16
ATOM     16  N   UNL     1     -29.411 -12.024  17.842  0.00  0.00    -0.172 NA
ATOM     17  C   UNL     1     -29.604 -10.747  18.554  0.00  0.00    +0.137 C 
ATOM     18  C   UNL     1     -29.593 -10.923  20.080  0.00  0.00    +0.177 C 
ATOM     19  O   UNL     1     -28.418 -11.581  20.501  0.00  0.00    -0.374 OA
ATOM     20  C   UNL     1     -28.381 -12.886  19.957  0.00  0.00    +0.131 C 
ATOM     21  C   UNL     1     -27.156 -13.613  20.511  0.00  0.00    +0.039 C 
ATOM     22  C   UNL     1     -28.314 -12.825  18.416  0.00  0.00    +0.140 C 
ENDBRANCH  13  16
ENDBRANCH   5  13
TORSDOF 3
ENDMDL
MODEL 8
REMARK VINA RESULT:    -4.249      2.553      3.615
REMARK INTER + INTRA:          -4.862
REMARK INTER:                  -4.982
REMARK INTRA:                   0.119
REMARK UNBOUND:                 0.132
REMARK  Name = 
REMARK  5 active torsions:
REMARK  status: ('A' for Active; 'I' for Inactive)
REMARK    1  A    between atoms: C_1  and  C_2
REMARK    2  A    between atoms: C_5  and  S_11
REMARK    3  A    between atoms: C_7  and  C_8
REMARK    4  A    between atoms: S_11  and  N_14
REMARK    5  A    between atoms: C_18  and  C_19
REMARK                            x       y       z     vdW  Elec       q    Type
REMARK                         _______ _______ _______ _____ _____    ______ ____
ROOT
ATOM      1  C   UNL     1     -33.081 -13.179  11.938  0.00  0.00    +0.044 C 
ATOM      2  C   UNL     1     -33.001 -12.521  13.291  0.00  0.00    -0.038 A 
ATOM      3  C   UNL     1     -33.925 -11.509  13.599  0.00  0.00    +0.006 A 
ATOM      4  C   UNL     1     -33.923 -10.898  14.854  0.00  0.00    +0.029 A 
ATOM      5  C   UNL     1     -32.996 -11.291  15.825  0.00  0.00    +0.106 A 
ATOM      6  C   UNL     1     -32.053 -12.279  15.522  0.00  0.00    +0.041 A 
ATOM      7  C   UNL     1     -32.027 -12.887  14.255  0.00  0.00    +0.041 A 
ENDROOT
BRANCH   7   8
ATOM      8  C   UNL     1     -30.984 -13.901  13.987  0.00  0.00    +0.242 C 
ATOM      9  N   UNL     1     -30.033 -13.718  12.936  0.00  0.00    -0.325 N 
ATOM     10  O   UNL     1     -30.901 -14.919  14.725  0.00  0.00    -0.270 OA
ATOM     11  H   UNL     1     -29.975 -12.815  12.416  0.00  0.00    +0.145 HD
ATOM     12  H   UNL     1     -29.328 -14.460  12.733  0.00  0.00    +0.145 HD
ENDBRANCH   7   8
BRANCH   5  13
ATOM     13  S   UNL     1     -32.974 -10.520  17.409  0.00  0.00    +0.061 S 
ATOM     14  O   UNL     1     -34.337  -9.971  17.725  0.00  0.00    -0.153 OA
ATOM     15  O   UNL     1     -32.634 -11.564  18.435  0.00  0.00    -0.153 OA
BRANCH  13  16
ATOM     16  N   UNL     1     -31.763  -9.254  17.430  0.00  0.00    -0.172 NA
ATOM     17  C   UNL     1     -31.776  -8.477  18.684  0.00  0.00    +0.137 C 
ATOM     18  C   UNL     1     -30.992  -9.169  19.808  0.00  0.00    +0.177 C 
ATOM     19  O   UNL     1     -29.675  -9.465  19.393  0.00  0.00    -0.374 OA
ATOM     20  C   UNL     1     -29.709 -10.383  18.317  0.00  0.00    +0.131 C 
ATOM     21  C   UNL     1     -28.275 -10.767  17.956  0.00  0.00    +0.039 C 
ATOM     22  C   UNL     1     -30.417  -9.755  17.097  0.00  0.00    +0.140 C 
ENDBRANCH  13  16
ENDBRANCH   5  13
TORSDOF 3
ENDMDL
MODEL 9
REMARK VINA RESULT:    -4.137      2.980      5.346
REMARK INTER + INTRA:          -4.730
REMARK INTER:                  -4.514
REMARK INTRA:                  -0.217
REMARK UNBOUND:                 0.132
REMARK  Name = 
REMARK  5 active torsions:
REMARK  status: ('A' for Active; 'I' for Inactive)
REMARK    1  A    between atoms: C_1  and  C_2
REMARK    2  A    between atoms: C_5  and  S_11
REMARK    3  A    between atoms: C_7  and  C_8
REMARK    4  A    between atoms: S_11  and  N_14
REMARK    5  A    between atoms: C_18  and  C_19
REMARK                            x       y       z     vdW  Elec       q    Type
REMARK                         _______ _______ _______ _____ _____    ______ ____
ROOT
ATOM      1  C   UNL     1     -29.080 -11.943  21.978  0.00  0.00    +0.044 C 
ATOM      2  C   UNL     1     -29.735 -12.351  20.683  0.00  0.00    -0.038 A 
ATOM      3  C   UNL     1     -31.058 -11.944  20.446  0.00  0.00    +0.006 A 
ATOM      4  C   UNL     1     -31.695 -12.257  19.244  0.00  0.00    +0.029 A 
ATOM      5  C   UNL     1     -31.019 -12.982  18.258  0.00  0.00    +0.106 A 
ATOM      6  C   UNL     1     -29.711 -13.417  18.493  0.00  0.00    +0.041 A 
ATOM      7  C   UNL     1     -29.062 -13.130  19.707  0.00  0.00    +0.041 A 
ENDROOT
BRANCH   7   8
ATOM      8  C   UNL     1     -27.691 -13.647  19.907  0.00  0.00    +0.242 C 
ATOM      9  N   UNL     1     -27.465 -14.899  20.557  0.00  0.00    -0.325 N 
ATOM     10  O   UNL     1     -26.709 -12.997  19.458  0.00  0.00    -0.270 OA
ATOM     11  H   UNL     1     -28.259 -15.532  20.794  0.00  0.00    +0.145 HD
ATOM     12  H   UNL     1     -26.489 -15.232  20.727  0.00  0.00    +0.145 HD
ENDBRANCH   7   8
BRANCH   5  13
ATOM     13  S   UNL     1     -31.816 -13.394  16.741  0.00  0.00    +0.061 S 
ATOM     14  O   UNL     1     -31.874 -14.888  16.588  0.00  0.00    -0.153 OA
ATOM     15  O   UNL     1     -33.222 -12.867  16.790  0.00  0.00    -0.153 OA
BRANCH  13  16
ATOM     16  N   UNL     1     -30.955 -12.655  15.406  0.00  0.00    -0.172 NA
ATOM     17  C   UNL     1     -29.965 -13.564  14.797  0.00  0.00    +0.137 C 
ATOM     18  C   UNL     1     -30.603 -14.524  13.782  0.00  0.00    +0.177 C 
ATOM     19  O   UNL     1     -31.327 -13.811  12.802  0.00  0.00    -0.374 OA
ATOM     20  C   UNL     1     -32.399 -13.119  13.411  0.00  0.00    +0.131 C 
ATOM     21  C   UNL     1     -33.228 -12.442  12.320  0.00  0.00    +0.039 C 
ATOM     22  C   UNL     1     -31.864 -12.066  14.405  0.00  0.00    +0.140 C 
ENDBRANCH  13  16
ENDBRANCH   5  13
TORSDOF 3
ENDMDL
