MODEL 1
REMARK VINA RESULT:    -4.931      0.000      0.000
REMARK INTER + INTRA:          -6.423
REMARK INTER:                  -6.084
REMARK INTRA:                  -0.338
REMARK UNBOUND:                -0.338
REMARK  Name = 
REMARK  4 active torsions:
REMARK  status: ('A' for Active; 'I' for Inactive)
REMARK    1  A    between atoms: C_2  and  C_3
REMARK    2  A    between atoms: N_13  and  C_14
REMARK    3  A    between atoms: C_14  and  C_15
REMARK    4  A    between atoms: C_19  and  N_21
REMARK                            x       y       z     vdW  Elec       q    Type
REMARK                         _______ _______ _______ _____ _____    ______ ____
ROOT
ATOM      1  C   UNL     1     -27.264 -13.102  20.119  0.00  0.00    +0.052 A 
ATOM      2  C   UNL     1     -28.430 -13.613  20.705  0.00  0.00    +0.021 A 
ATOM      3  C   UNL     1     -29.686 -13.185  20.263  0.00  0.00    +0.029 A 
ATOM      4  C   UNL     1     -29.783 -12.244  19.233  0.00  0.00    +0.073 A 
ATOM      5  N   UNL     1     -31.003 -11.825  18.803  0.00  0.00    -0.232 NA
ATOM      6  C   UNL     1     -31.148 -10.909  17.806  0.00  0.00    +0.120 A 
ATOM      7  C   UNL     1     -30.002 -10.379  17.187  0.00  0.00    +0.044 A 
ATOM      8  C   UNL     1     -28.735 -10.788  17.608  0.00  0.00    +0.013 A 
ATOM      9  C   UNL     1     -28.612 -11.727  18.639  0.00  0.00    +0.002 A 
ATOM     10  C   UNL     1     -27.354 -12.159  19.086  0.00  0.00    +0.029 A 
ATOM     11  N   UNL     1     -32.476 -10.518  17.414  0.00  0.00    -0.325 N 
ATOM     12  H   UNL     1     -33.281 -11.021  17.851  0.00  0.00    +0.148 HD
ENDROOT
BRANCH   1  14
ATOM     13  N   UNL     1     -24.938 -13.904  20.946  0.00  0.00    -0.191 NA
ATOM     14  C   UNL     1     -25.974 -13.546  20.578  0.00  0.00    +0.099 C 
ENDBRANCH   1  14
BRANCH  11  15
ATOM     15  C   UNL     1     -32.783  -9.426  16.489  0.00  0.00    +0.138 C 
BRANCH  15  16
ATOM     16  C   UNL     1     -33.449  -9.953  15.245  0.00  0.00    -0.028 A 
ATOM     17  C   UNL     1     -34.452  -9.210  14.604  0.00  0.00    +0.005 A 
ATOM     18  C   UNL     1     -35.062  -9.701  13.449  0.00  0.00    +0.003 A 
ATOM     19  C   UNL     1     -34.673 -10.932  12.917  0.00  0.00    +0.033 A 
ATOM     20  C   UNL     1     -33.662 -11.687  13.534  0.00  0.00    +0.127 A 
ATOM     21  C   UNL     1     -33.051 -11.186  14.700  0.00  0.00    +0.038 A 
BRANCH  20  22
ATOM     22  N   UNL     1     -33.260 -12.954  12.982  0.00  0.00    +0.056 N 
ATOM     23  O   UNL     1     -33.981 -13.533  11.963  0.00  0.00    -0.126 OA
ATOM     24  O   UNL     1     -32.252 -13.550  13.418  0.00  0.00    -0.126 OA
ENDBRANCH  20  22
ENDBRANCH  15  16
ENDBRANCH  11  15
TORSDOF 4
ENDMDL
MODEL 2
REMARK VINA RESULT:    -4.266      4.578      6.168
REMARK INTER + INTRA:          -5.602
REMARK INTER:                  -5.305
REMARK INTRA:                  -0.297
REMARK UNBOUND:                -0.338
REMARK  Name = 
REMARK  4 active torsions:
REMARK  status: ('A' for Active; 'I' for Inactive)
REMARK    1  A    between atoms: C_2  and  C_3
REMARK    2  A    between atoms: N_13  and  C_14
REMARK    3  A    between atoms: C_14  and  C_15
REMARK    4  A    between atoms: C_19  and  N_21
REMARK                            x       y       z     vdW  Elec       q    Type
REMARK                         _______ _______ _______ _____ _____    ______ ____
ROOT
ATOM      1  C   UNL     1     -29.526 -14.196  13.839  0.00  0.00    +0.052 A 
ATOM      2  C   UNL     1     -29.406 -14.722  15.132  0.00  0.00    +0.021 A 
ATOM      3  C   UNL     1     -30.233 -14.259  16.160  0.00  0.00    +0.029 A 
ATOM      4  C   UNL     1     -31.185 -13.268  15.902  0.00  0.00    +0.073 A 
ATOM      5  N   UNL     1     -31.989 -12.814  16.900  0.00  0.00    -0.232 NA
ATOM      6  C   UNL     1     -32.928 -11.849  16.697  0.00  0.00    +0.120 A 
ATOM      7  C   UNL     1     -33.084 -11.302  15.411  0.00  0.00    +0.044 A 
ATOM      8  C   UNL     1     -32.271 -11.745  14.366  0.00  0.00    +0.013 A 
ATOM      9  C   UNL     1     -31.310 -12.735  14.601  0.00  0.00    +0.002 A 
ATOM     10  C   UNL     1     -30.478 -13.203  13.573  0.00  0.00    +0.029 A 
ATOM     11  N   UNL     1     -33.735 -11.425  17.810  0.00  0.00    -0.325 N 
ATOM     12  H   UNL     1     -33.629 -11.939  18.713  0.00  0.00    +0.148 HD
ENDROOT
BRANCH   1  14
ATOM     13  N   UNL     1     -27.986 -15.062  11.938  0.00  0.00    -0.191 NA
ATOM     14  C   UNL     1     -28.672 -14.676  12.784  0.00  0.00    +0.099 C 
ENDBRANCH   1  14
BRANCH  11  15
ATOM     15  C   UNL     1     -34.653 -10.285  17.785  0.00  0.00    +0.138 C 
BRANCH  15  16
ATOM     16  C   UNL     1     -33.989  -9.054  18.343  0.00  0.00    -0.028 A 
ATOM     17  C   UNL     1     -34.654  -7.818  18.329  0.00  0.00    +0.005 A 
ATOM     18  C   UNL     1     -34.035  -6.681  18.852  0.00  0.00    +0.003 A 
ATOM     19  C   UNL     1     -32.755  -6.767  19.402  0.00  0.00    +0.033 A 
ATOM     20  C   UNL     1     -32.076  -7.997  19.438  0.00  0.00    +0.127 A 
ATOM     21  C   UNL     1     -32.706  -9.140  18.908  0.00  0.00    +0.038 A 
BRANCH  20  22
ATOM     22  N   UNL     1     -30.757  -8.084  20.009  0.00  0.00    +0.056 N 
ATOM     23  O   UNL     1     -30.156  -6.972  20.553  0.00  0.00    -0.126 OA
ATOM     24  O   UNL     1     -30.136  -9.167  20.017  0.00  0.00    -0.126 OA
ENDBRANCH  20  22
ENDBRANCH  15  16
ENDBRANCH  11  15
TORSDOF 4
ENDMDL
MODEL 3
REMARK VINA RESULT:    -4.225      3.134      3.735
REMARK INTER + INTRA:          -5.551
REMARK INTER:                  -5.164
REMARK INTRA:                  -0.387
REMARK UNBOUND:                -0.338
REMARK  Name = 
REMARK  4 active torsions:
REMARK  status: ('A' for Active; 'I' for Inactive)
REMARK    1  A    between atoms: C_2  and  C_3
REMARK    2  A    between atoms: N_13  and  C_14
REMARK    3  A    between atoms: C_14  and  C_15
REMARK    4  A    between atoms: C_19  and  N_21
REMARK                            x       y       z     vdW  Elec       q    Type
REMARK                         _______ _______ _______ _____ _____    ______ ____
ROOT
ATOM      1  C   UNL     1     -27.417 -13.372  20.241  0.00  0.00    +0.052 A 
ATOM      2  C   UNL     1     -28.424 -13.372  21.216  0.00  0.00    +0.021 A 
ATOM      3  C   UNL     1     -29.761 -13.195  20.848  0.00  0.00    +0.029 A 
ATOM      4  C   UNL     1     -30.100 -13.018  19.503  0.00  0.00    +0.073 A 
ATOM      5  N   UNL     1     -31.399 -12.844  19.142  0.00  0.00    -0.232 NA
ATOM      6  C   UNL     1     -31.777 -12.665  17.846  0.00  0.00    +0.120 A 
ATOM      7  C   UNL     1     -30.797 -12.666  16.838  0.00  0.00    +0.044 A 
ATOM      8  C   UNL     1     -29.454 -12.840  17.177  0.00  0.00    +0.013 A 
ATOM      9  C   UNL     1     -29.090 -13.018  18.517  0.00  0.00    +0.002 A 
ATOM     10  C   UNL     1     -27.750 -13.195  18.891  0.00  0.00    +0.029 A 
ATOM     11  N   UNL     1     -33.174 -12.485  17.552  0.00  0.00    -0.325 N 
ATOM     12  H   UNL     1     -33.855 -12.588  18.338  0.00  0.00    +0.148 HD
ENDROOT
BRANCH   1  14
ATOM     13  N   UNL     1     -24.938 -13.701  20.936  0.00  0.00    -0.191 NA
ATOM     14  C   UNL     1     -26.042 -13.554  20.627  0.00  0.00    +0.099 C 
ENDBRANCH   1  14
BRANCH  11  15
ATOM     15  C   UNL     1     -33.707 -12.110  16.241  0.00  0.00    +0.138 C 
BRANCH  15  16
ATOM     16  C   UNL     1     -34.084 -10.652  16.217  0.00  0.00    -0.028 A 
ATOM     17  C   UNL     1     -34.357 -10.007  15.001  0.00  0.00    +0.005 A 
ATOM     18  C   UNL     1     -34.711  -8.657  14.985  0.00  0.00    +0.003 A 
ATOM     19  C   UNL     1     -34.806  -7.941  16.180  0.00  0.00    +0.033 A 
ATOM     20  C   UNL     1     -34.550  -8.569  17.410  0.00  0.00    +0.127 A 
ATOM     21  C   UNL     1     -34.192  -9.932  17.418  0.00  0.00    +0.038 A 
BRANCH  20  22
ATOM     22  N   UNL     1     -34.652  -7.830  18.640  0.00  0.00    +0.056 N 
ATOM     23  O   UNL     1     -35.060  -6.516  18.635  0.00  0.00    -0.126 OA
ATOM     24  O   UNL     1     -34.369  -8.366  19.732  0.00  0.00    -0.126 OA
ENDBRANCH  20  22
ENDBRANCH  15  16
ENDBRANCH  11  15
TORSDOF 4
ENDMDL
MODEL 4
REMARK VINA RESULT:    -4.000      4.711      6.738
REMARK INTER + INTRA:          -5.274
REMARK INTER:                  -4.894
REMARK INTRA:                  -0.380
REMARK UNBOUND:                -0.338
REMARK  Name = 
REMARK  4 active torsions:
REMARK  status: ('A' for Active; 'I' for Inactive)
REMARK    1  A    between atoms: C_2  and  C_3
REMARK    2  A    between atoms: N_13  and  C_14
REMARK    3  A    between atoms: C_14  and  C_15
REMARK    4  A    between atoms: C_19  and  N_21
REMARK                            x       y       z     vdW  Elec       q    Type
REMARK                         _______ _______ _______ _____ _____    ______ ____
ROOT
ATOM      1  C   UNL     1     -29.136 -14.278  13.702  0.00  0.00    +0.052 A 
ATOM      2  C   UNL     1     -30.464 -14.042  13.321  0.00  0.00    +0.021 A 
ATOM      3  C   UNL     1     -31.403 -13.619  14.267  0.00  0.00    +0.029 A 
ATOM      4  C   UNL     1     -31.020 -13.430  15.599  0.00  0.00    +0.073 A 
ATOM      5  N   UNL     1     -31.932 -13.020  16.521  0.00  0.00    -0.232 NA
ATOM      6  C   UNL     1     -31.607 -12.826  17.829  0.00  0.00    +0.120 A 
ATOM      7  C   UNL     1     -30.283 -13.046  18.248  0.00  0.00    +0.044 A 
ATOM      8  C   UNL     1     -29.324 -13.468  17.325  0.00  0.00    +0.013 A 
ATOM      9  C   UNL     1     -29.684 -13.666  15.987  0.00  0.00    +0.002 A 
ATOM     10  C   UNL     1     -28.746 -14.090  15.034  0.00  0.00    +0.029 A 
ATOM     11  N   UNL     1     -32.634 -12.395  18.739  0.00  0.00    -0.325 N 
ATOM     12  H   UNL     1     -33.572 -12.161  18.342  0.00  0.00    +0.148 HD
ENDROOT
BRANCH   1  14
ATOM     13  N   UNL     1     -27.401 -15.062  11.938  0.00  0.00    -0.191 NA
ATOM     14  C   UNL     1     -28.174 -14.713  12.723  0.00  0.00    +0.099 C 
ENDBRANCH   1  14
BRANCH  11  15
ATOM     15  C   UNL     1     -32.478 -12.314  20.193  0.00  0.00    +0.138 C 
BRANCH  15  16
ATOM     16  C   UNL     1     -32.800 -10.929  20.687  0.00  0.00    -0.028 A 
ATOM     17  C   UNL     1     -33.844 -10.724  21.602  0.00  0.00    +0.005 A 
ATOM     18  C   UNL     1     -34.135  -9.438  22.061  0.00  0.00    +0.003 A 
ATOM     19  C   UNL     1     -33.383  -8.347  21.620  0.00  0.00    +0.033 A 
ATOM     20  C   UNL     1     -32.324  -8.531  20.714  0.00  0.00    +0.127 A 
ATOM     21  C   UNL     1     -32.037  -9.831  20.255  0.00  0.00    +0.038 A 
BRANCH  20  22
ATOM     22  N   UNL     1     -31.548  -7.405  20.264  0.00  0.00    +0.056 N 
ATOM     23  O   UNL     1     -30.176  -7.486  20.195  0.00  0.00    -0.126 OA
ATOM     24  O   UNL     1     -32.104  -6.337  19.933  0.00  0.00    -0.126 OA
ENDBRANCH  20  22
ENDBRANCH  15  16
ENDBRANCH  11  15
TORSDOF 4
ENDMDL
MODEL 5
REMARK VINA RESULT:    -3.829      1.378      2.105
REMARK INTER + INTRA:          -5.062
REMARK INTER:                  -4.700
REMARK INTRA:                  -0.362
REMARK UNBOUND:                -0.338
REMARK  Name = 
REMARK  4 active torsions:
REMARK  status: ('A' for Active; 'I' for Inactive)
REMARK    1  A    between atoms: C_2  and  C_3
REMARK    2  A    between atoms: N_13  and  C_14
REMARK    3  A    between atoms: C_14  and  C_15
REMARK    4  A    between atoms: C_19  and  N_21
REMARK                            x       y       z     vdW  Elec       q    Type
REMARK                         _______ _______ _______ _____ _____    ______ ____
ROOT
ATOM      1  C   UNL     1     -27.313 -13.122  20.131  0.00  0.00    +0.052 A 
ATOM      2  C   UNL     1     -26.774 -12.366  19.081  0.00  0.00    +0.021 A 
ATOM      3  C   UNL     1     -27.568 -11.437  18.402  0.00  0.00    +0.029 A 
ATOM      4  C   UNL     1     -28.906 -11.258  18.768  0.00  0.00    +0.073 A 
ATOM      5  N   UNL     1     -29.681 -10.356  18.108  0.00  0.00    -0.232 NA
ATOM      6  C   UNL     1     -30.989 -10.149  18.427  0.00  0.00    +0.120 A 
ATOM      7  C   UNL     1     -31.564 -10.883  19.479  0.00  0.00    +0.044 A 
ATOM      8  C   UNL     1     -30.794 -11.818  20.175  0.00  0.00    +0.013 A 
ATOM      9  C   UNL     1     -29.454 -12.016  19.825  0.00  0.00    +0.002 A 
ATOM     10  C   UNL     1     -28.653 -12.947  20.504  0.00  0.00    +0.029 A 
ATOM     11  N   UNL     1     -31.738  -9.178  17.675  0.00  0.00    -0.325 N 
ATOM     12  H   UNL     1     -31.223  -8.604  16.970  0.00  0.00    +0.148 HD
ENDROOT
BRANCH   1  14
ATOM     13  N   UNL     1     -25.830 -14.844  21.386  0.00  0.00    -0.191 NA
ATOM     14  C   UNL     1     -26.491 -14.077  20.827  0.00  0.00    +0.099 C 
ENDBRANCH   1  14
BRANCH  11  15
ATOM     15  C   UNL     1     -33.183  -8.975  17.785  0.00  0.00    +0.138 C 
BRANCH  15  16
ATOM     16  C   UNL     1     -33.826  -8.975  16.423  0.00  0.00    -0.028 A 
ATOM     17  C   UNL     1     -34.459  -7.821  15.934  0.00  0.00    +0.005 A 
ATOM     18  C   UNL     1     -35.049  -7.825  14.669  0.00  0.00    +0.003 A 
ATOM     19  C   UNL     1     -35.004  -8.973  13.876  0.00  0.00    +0.033 A 
ATOM     20  C   UNL     1     -34.364 -10.135  14.339  0.00  0.00    +0.127 A 
ATOM     21  C   UNL     1     -33.772 -10.124  15.617  0.00  0.00    +0.038 A 
BRANCH  20  22
ATOM     22  N   UNL     1     -34.316 -11.316  13.518  0.00  0.00    +0.056 N 
ATOM     23  O   UNL     1     -34.027 -12.542  14.073  0.00  0.00    -0.126 OA
ATOM     24  O   UNL     1     -34.533 -11.249  12.290  0.00  0.00    -0.126 OA
ENDBRANCH  20  22
ENDBRANCH  15  16
ENDBRANCH  11  15
TORSDOF 4
ENDMDL
MODEL 6
REMARK VINA RESULT:    -3.680      4.427      6.254
REMARK INTER + INTRA:          -4.878
REMARK INTER:                  -4.551
REMARK INTRA:                  -0.327
REMARK UNBOUND:                -0.338
REMARK  Name = 
REMARK  4 active torsions:
REMARK  status: ('A' for Active; 'I' for Inactive)
REMARK    1  A    between atoms: C_2  and  C_3
REMARK    2  A    between atoms: N_13  and  C_14
REMARK    3  A    between atoms: C_14  and  C_15
REMARK    4  A    between atoms: C_19  and  N_21
REMARK                            x       y       z     vdW  Elec       q    Type
REMARK                         _______ _______ _______ _____ _____    ______ ____
ROOT
ATOM      1  C   UNL     1     -34.420  -7.674  20.467  0.00  0.00    +0.052 A 
ATOM      2  C   UNL     1     -34.101  -8.924  21.015  0.00  0.00    +0.021 A 
ATOM      3  C   UNL     1     -33.783  -9.998  20.178  0.00  0.00    +0.029 A 
ATOM      4  C   UNL     1     -33.784  -9.830  18.790  0.00  0.00    +0.073 A 
ATOM      5  N   UNL     1     -33.478 -10.874  17.974  0.00  0.00    -0.232 NA
ATOM      6  C   UNL     1     -33.468 -10.759  16.617  0.00  0.00    +0.120 A 
ATOM      7  C   UNL     1     -33.776  -9.519  16.030  0.00  0.00    +0.044 A 
ATOM      8  C   UNL     1     -34.097  -8.429  16.841  0.00  0.00    +0.013 A 
ATOM      9  C   UNL     1     -34.105  -8.573  18.234  0.00  0.00    +0.002 A 
ATOM     10  C   UNL     1     -34.422  -7.498  19.077  0.00  0.00    +0.029 A 
ATOM     11  N   UNL     1     -33.136 -11.915  15.828  0.00  0.00    -0.325 N 
ATOM     12  H   UNL     1     -32.828 -12.777  16.332  0.00  0.00    +0.148 HD
ENDROOT
BRANCH   1  14
ATOM     13  N   UNL     1     -35.007  -5.685  22.029  0.00  0.00    -0.191 NA
ATOM     14  C   UNL     1     -34.745  -6.571  21.333  0.00  0.00    +0.099 C 
ENDBRANCH   1  14
BRANCH  11  15
ATOM     15  C   UNL     1     -33.255 -11.990  14.371  0.00  0.00    +0.138 C 
BRANCH  15  16
ATOM     16  C   UNL     1     -32.181 -12.875  13.794  0.00  0.00    -0.028 A 
ATOM     17  C   UNL     1     -32.271 -13.334  12.470  0.00  0.00    +0.005 A 
ATOM     18  C   UNL     1     -31.270 -14.149  11.940  0.00  0.00    +0.003 A 
ATOM     19  C   UNL     1     -30.168 -14.507  12.718  0.00  0.00    +0.033 A 
ATOM     20  C   UNL     1     -30.051 -14.049  14.042  0.00  0.00    +0.127 A 
ATOM     21  C   UNL     1     -31.065 -13.227  14.571  0.00  0.00    +0.038 A 
BRANCH  20  22
ATOM     22  N   UNL     1     -28.912 -14.416  14.841  0.00  0.00    +0.056 N 
ATOM     23  O   UNL     1     -28.926 -14.232  16.204  0.00  0.00    -0.126 OA
ATOM     24  O   UNL     1     -27.891 -14.905  14.312  0.00  0.00    -0.126 OA
ENDBRANCH  20  22
ENDBRANCH  15  16
ENDBRANCH  11  15
TORSDOF 4
ENDMDL
MODEL 7
REMARK VINA RESULT:    -3.657      4.382      6.563
REMARK INTER + INTRA:          -4.851
REMARK INTER:                  -4.402
REMARK INTRA:                  -0.449
REMARK UNBOUND:                -0.338
REMARK  Name = 
REMARK  4 active torsions:
REMARK  status: ('A' for Active; 'I' for Inactive)
REMARK    1  A    between atoms: C_2  and  C_3
REMARK    2  A    between atoms: N_13  and  C_14
REMARK    3  A    between atoms: C_14  and  C_15
REMARK    4  A    between atoms: C_19  and  N_21
REMARK                            x       y       z     vdW  Elec       q    Type
REMARK                         _______ _______ _______ _____ _____    ______ ____
ROOT
ATOM      1  C   UNL     1     -30.290 -14.321  14.385  0.00  0.00    +0.052 A 
ATOM      2  C   UNL     1     -29.414 -14.712  15.406  0.00  0.00    +0.021 A 
ATOM      3  C   UNL     1     -29.649 -14.316  16.726  0.00  0.00    +0.029 A 
ATOM      4  C   UNL     1     -30.761 -13.527  17.034  0.00  0.00    +0.073 A 
ATOM      5  N   UNL     1     -30.991 -13.139  18.317  0.00  0.00    -0.232 NA
ATOM      6  C   UNL     1     -32.059 -12.368  18.664  0.00  0.00    +0.120 A 
ATOM      7  C   UNL     1     -32.966 -11.962  17.669  0.00  0.00    +0.044 A 
ATOM      8  C   UNL     1     -32.756 -12.342  16.342  0.00  0.00    +0.013 A 
ATOM      9  C   UNL     1     -31.648 -13.131  16.009  0.00  0.00    +0.002 A 
ATOM     10  C   UNL     1     -31.408 -13.531  14.686  0.00  0.00    +0.029 A 
ATOM     11  N   UNL     1     -32.226 -12.000  20.044  0.00  0.00    -0.325 N 
ATOM     12  H   UNL     1     -31.568 -12.414  20.743  0.00  0.00    +0.148 HD
ENDROOT
BRANCH   1  14
ATOM     13  N   UNL     1     -29.845 -15.062  11.938  0.00  0.00    -0.191 NA
ATOM     14  C   UNL     1     -30.043 -14.732  13.028  0.00  0.00    +0.099 C 
ENDBRANCH   1  14
BRANCH  11  15
ATOM     15  C   UNL     1     -33.216 -11.040  20.536  0.00  0.00    +0.138 C 
BRANCH  15  16
ATOM     16  C   UNL     1     -32.698  -9.631  20.415  0.00  0.00    -0.028 A 
ATOM     17  C   UNL     1     -31.460  -9.277  20.974  0.00  0.00    +0.005 A 
ATOM     18  C   UNL     1     -30.982  -7.971  20.855  0.00  0.00    +0.003 A 
ATOM     19  C   UNL     1     -31.728  -7.009  20.171  0.00  0.00    +0.033 A 
ATOM     20  C   UNL     1     -32.964  -7.344  19.592  0.00  0.00    +0.127 A 
ATOM     21  C   UNL     1     -33.440  -8.664  19.717  0.00  0.00    +0.038 A 
BRANCH  20  22
ATOM     22  N   UNL     1     -33.729  -6.352  18.884  0.00  0.00    +0.056 N 
ATOM     23  O   UNL     1     -33.669  -5.028  19.253  0.00  0.00    -0.126 OA
ATOM     24  O   UNL     1     -34.462  -6.675  17.926  0.00  0.00    -0.126 OA
ENDBRANCH  20  22
ENDBRANCH  15  16
ENDBRANCH  11  15
TORSDOF 4
ENDMDL
MODEL 8
REMARK VINA RESULT:    -3.577      3.772      5.324
REMARK INTER + INTRA:          -4.751
REMARK INTER:                  -4.316
REMARK INTRA:                  -0.435
REMARK UNBOUND:                -0.338
REMARK  Name = 
REMARK  4 active torsions:
REMARK  status: ('A' for Active; 'I' for Inactive)
REMARK    1  A    between atoms: C_2  and  C_3
REMARK    2  A    between atoms: N_13  and  C_14
REMARK    3  A    between atoms: C_14  and  C_15
REMARK    4  A    between atoms: C_19  and  N_21
REMARK                            x       y       z     vdW  Elec       q    Type
REMARK                         _______ _______ _______ _____ _____    ______ ____
ROOT
ATOM      1  C   UNL     1     -31.325  -7.047  20.511  0.00  0.00    +0.052 A 
ATOM      2  C   UNL     1     -32.537  -6.961  19.812  0.00  0.00    +0.021 A 
ATOM      3  C   UNL     1     -32.981  -8.038  19.039  0.00  0.00    +0.029 A 
ATOM      4  C   UNL     1     -32.216  -9.207  18.959  0.00  0.00    +0.073 A 
ATOM      5  N   UNL     1     -32.644 -10.255  18.206  0.00  0.00    -0.232 NA
ATOM      6  C   UNL     1     -31.933 -11.411  18.096  0.00  0.00    +0.120 A 
ATOM      7  C   UNL     1     -30.716 -11.538  18.789  0.00  0.00    +0.044 A 
ATOM      8  C   UNL     1     -30.248 -10.478  19.569  0.00  0.00    +0.013 A 
ATOM      9  C   UNL     1     -30.995  -9.298  19.662  0.00  0.00    +0.002 A 
ATOM     10  C   UNL     1     -30.554  -8.214  20.437  0.00  0.00    +0.029 A 
ATOM     11  N   UNL     1     -32.458 -12.470  17.276  0.00  0.00    -0.325 N 
ATOM     12  H   UNL     1     -33.411 -12.343  16.866  0.00  0.00    +0.148 HD
ENDROOT
BRANCH   1  14
ATOM     13  N   UNL     1     -30.510  -5.041  21.944  0.00  0.00    -0.191 NA
ATOM     14  C   UNL     1     -30.873  -5.935  21.306  0.00  0.00    +0.099 C 
ENDBRANCH   1  14
BRANCH  11  15
ATOM     15  C   UNL     1     -31.729 -13.689  16.925  0.00  0.00    +0.138 C 
BRANCH  15  16
ATOM     16  C   UNL     1     -31.357 -13.686  15.465  0.00  0.00    -0.028 A 
ATOM     17  C   UNL     1     -32.221 -13.127  14.511  0.00  0.00    +0.005 A 
ATOM     18  C   UNL     1     -31.869 -13.123  13.160  0.00  0.00    +0.003 A 
ATOM     19  C   UNL     1     -30.650 -13.665  12.750  0.00  0.00    +0.033 A 
ATOM     20  C   UNL     1     -29.763 -14.217  13.689  0.00  0.00    +0.127 A 
ATOM     21  C   UNL     1     -30.125 -14.219  15.050  0.00  0.00    +0.038 A 
BRANCH  20  22
ATOM     22  N   UNL     1     -28.505 -14.772  13.264  0.00  0.00    +0.056 N 
ATOM     23  O   UNL     1     -28.281 -15.062  11.938  0.00  0.00    -0.126 OA
ATOM     24  O   UNL     1     -27.596 -15.001  14.090  0.00  0.00    -0.126 OA
ENDBRANCH  20  22
ENDBRANCH  15  16
ENDBRANCH  11  15
TORSDOF 4
ENDMDL
