MODEL 1
REMARK VINA RESULT:    -6.161      0.000      0.000
REMARK INTER + INTRA:          -6.732
REMARK INTER:                  -6.881
REMARK INTRA:                   0.149
REMARK UNBOUND:                 0.149
REMARK  Name = 
REMARK  3 active torsions:
REMARK  status: ('A' for Active; 'I' for Inactive)
REMARK    1  A    between atoms: C_1  and  C_2
REMARK    2  A    between atoms: C_5  and  S_12
REMARK    3  A    between atoms: S_12  and  N_15
REMARK                            x       y       z     vdW  Elec       q    Type
REMARK                         _______ _______ _______ _____ _____    ______ ____
ROOT
ATOM      1  S   UNL     1     -30.356 -13.322  17.123  0.00  0.00    +0.062 S 
ATOM      2  O   UNL     1     -29.083 -13.594  16.372  0.00  0.00    -0.153 OA
ATOM      3  O   UNL     1     -30.900 -14.634  17.615  0.00  0.00    -0.153 OA
ENDROOT
BRANCH   1   8
ATOM      4  C   UNL     1     -34.608 -10.683  13.612  0.00  0.00    +0.044 C 
ATOM      5  C   UNL     1     -33.533 -11.366  14.422  0.00  0.00    -0.043 A 
ATOM      6  C   UNL     1     -33.412 -11.043  15.780  0.00  0.00    +0.006 A 
ATOM      7  C   UNL     1     -32.441 -11.644  16.572  0.00  0.00    +0.029 A 
ATOM      8  C   UNL     1     -31.554 -12.586  16.038  0.00  0.00    +0.113 A 
ATOM      9  C   UNL     1     -31.654 -12.936  14.666  0.00  0.00    +0.009 A 
ATOM     10  C   UNL     1     -30.789 -13.885  14.078  0.00  0.00    +0.010 A 
ATOM     11  C   UNL     1     -30.903 -14.219  12.730  0.00  0.00    +0.001 A 
ATOM     12  C   UNL     1     -31.876 -13.618  11.938  0.00  0.00    +0.001 A 
ATOM     13  C   UNL     1     -32.744 -12.677  12.490  0.00  0.00    +0.009 A 
ATOM     14  C   UNL     1     -32.653 -12.320  13.852  0.00  0.00    -0.013 A 
ENDBRANCH   1   8
BRANCH   1  15
ATOM     15  N   UNL     1     -30.059 -12.251  18.477  0.00  0.00    -0.174 NA
ATOM     16  C   UNL     1     -29.008 -11.249  18.208  0.00  0.00    +0.112 C 
ATOM     17  C   UNL     1     -27.587 -11.812  18.347  0.00  0.00    +0.051 C 
ATOM     18  C   UNL     1     -27.394 -12.483  19.707  0.00  0.00    +0.150 C 
ATOM     19  O   UNL     1     -26.074 -13.000  19.787  0.00  0.00    -0.372 OA
ATOM     20  C   UNL     1     -25.972 -14.147  20.617  0.00  0.00    +0.188 C 
ATOM     21  C   UNL     1     -27.061 -14.213  21.710  0.00  0.00    +0.188 C 
ATOM     22  O   UNL     1     -28.386 -14.182  21.198  0.00  0.00    -0.370 OA
ATOM     23  C   UNL     1     -28.476 -13.575  19.917  0.00  0.00    +0.163 C 
ATOM     24  C   UNL     1     -29.880 -12.966  19.756  0.00  0.00    +0.143 C 
ENDBRANCH   1  15
TORSDOF 2
ENDMDL
MODEL 2
REMARK VINA RESULT:    -6.002      2.309      3.427
REMARK INTER + INTRA:          -6.555
REMARK INTER:                  -6.432
REMARK INTRA:                  -0.122
REMARK UNBOUND:                 0.149
REMARK  Name = 
REMARK  3 active torsions:
REMARK  status: ('A' for Active; 'I' for Inactive)
REMARK    1  A    between atoms: C_1  and  C_2
REMARK    2  A    between atoms: C_5  and  S_12
REMARK    3  A    between atoms: S_12  and  N_15
REMARK                            x       y       z     vdW  Elec       q    Type
REMARK                         _______ _______ _______ _____ _____    ______ ____
ROOT
ATOM      1  S   UNL     1     -30.912 -13.234  17.783  0.00  0.00    +0.062 S 
ATOM      2  O   UNL     1     -30.658 -14.670  18.147  0.00  0.00    -0.153 OA
ATOM      3  O   UNL     1     -32.077 -12.743  18.598  0.00  0.00    -0.153 OA
ENDROOT
BRANCH   1   8
ATOM      4  C   UNL     1     -32.621 -12.708  11.938  0.00  0.00    +0.044 C 
ATOM      5  C   UNL     1     -32.142 -12.870  13.360  0.00  0.00    -0.043 A 
ATOM      6  C   UNL     1     -32.892 -12.288  14.389  0.00  0.00    +0.006 A 
ATOM      7  C   UNL     1     -32.496 -12.408  15.716  0.00  0.00    +0.029 A 
ATOM      8  C   UNL     1     -31.336 -13.111  16.063  0.00  0.00    +0.113 A 
ATOM      9  C   UNL     1     -30.556 -13.713  15.043  0.00  0.00    +0.009 A 
ATOM     10  C   UNL     1     -29.381 -14.439  15.339  0.00  0.00    +0.010 A 
ATOM     11  C   UNL     1     -28.629 -15.027  14.324  0.00  0.00    +0.001 A 
ATOM     12  C   UNL     1     -29.026 -14.908  12.997  0.00  0.00    +0.001 A 
ATOM     13  C   UNL     1     -30.181 -14.198  12.673  0.00  0.00    +0.009 A 
ATOM     14  C   UNL     1     -30.964 -13.592  13.679  0.00  0.00    -0.013 A 
ENDBRANCH   1   8
BRANCH   1  15
ATOM     15  N   UNL     1     -29.498 -12.253  18.109  0.00  0.00    -0.174 NA
ATOM     16  C   UNL     1     -28.741 -12.698  19.296  0.00  0.00    +0.112 C 
ATOM     17  C   UNL     1     -29.363 -12.232  20.619  0.00  0.00    +0.051 C 
ATOM     18  C   UNL     1     -29.578 -10.718  20.619  0.00  0.00    +0.150 C 
ATOM     19  O   UNL     1     -30.166 -10.332  21.853  0.00  0.00    -0.372 OA
ATOM     20  C   UNL     1     -30.990  -9.182  21.744  0.00  0.00    +0.188 C 
ATOM     21  C   UNL     1     -30.598  -8.254  20.574  0.00  0.00    +0.188 C 
ATOM     22  O   UNL     1     -30.606  -8.896  19.308  0.00  0.00    -0.370 OA
ATOM     23  C   UNL     1     -30.435 -10.304  19.394  0.00  0.00    +0.163 C 
ATOM     24  C   UNL     1     -29.779 -10.804  18.096  0.00  0.00    +0.143 C 
ENDBRANCH   1  15
TORSDOF 2
ENDMDL
MODEL 3
REMARK VINA RESULT:    -5.808      3.135      4.560
REMARK INTER + INTRA:          -6.338
REMARK INTER:                  -6.360
REMARK INTRA:                   0.022
REMARK UNBOUND:                 0.149
REMARK  Name = 
REMARK  3 active torsions:
REMARK  status: ('A' for Active; 'I' for Inactive)
REMARK    1  A    between atoms: C_1  and  C_2
REMARK    2  A    between atoms: C_5  and  S_12
REMARK    3  A    between atoms: S_12  and  N_15
REMARK                            x       y       z     vdW  Elec       q    Type
REMARK                         _______ _______ _______ _____ _____    ______ ____
ROOT
ATOM      1  S   UNL     1     -32.031 -11.463  16.962  0.00  0.00    +0.062 S 
ATOM      2  O   UNL     1     -33.434 -11.823  17.363  0.00  0.00    -0.153 OA
ATOM      3  O   UNL     1     -32.026 -10.029  16.510  0.00  0.00    -0.153 OA
ENDROOT
BRANCH   1   8
ATOM      4  C   UNL     1     -29.990 -15.011  12.421  0.00  0.00    +0.044 C 
ATOM      5  C   UNL     1     -30.550 -14.121  13.504  0.00  0.00    -0.043 A 
ATOM      6  C   UNL     1     -29.864 -14.036  14.722  0.00  0.00    +0.006 A 
ATOM      7  C   UNL     1     -30.335 -13.231  15.753  0.00  0.00    +0.029 A 
ATOM      8  C   UNL     1     -31.509 -12.483  15.605  0.00  0.00    +0.113 A 
ATOM      9  C   UNL     1     -32.225 -12.546  14.381  0.00  0.00    +0.009 A 
ATOM     10  C   UNL     1     -33.411 -11.806  14.178  0.00  0.00    +0.010 A 
ATOM     11  C   UNL     1     -34.100 -11.877  12.968  0.00  0.00    +0.001 A 
ATOM     12  C   UNL     1     -33.627 -12.682  11.938  0.00  0.00    +0.001 A 
ATOM     13  C   UNL     1     -32.459 -13.425  12.108  0.00  0.00    +0.009 A 
ATOM     14  C   UNL     1     -31.740 -13.372  13.322  0.00  0.00    -0.013 A 
ENDBRANCH   1   8
BRANCH   1  15
ATOM     15  N   UNL     1     -30.930 -11.671  18.307  0.00  0.00    -0.174 NA
ATOM     16  C   UNL     1     -31.552 -12.329  19.474  0.00  0.00    +0.112 C 
ATOM     17  C   UNL     1     -32.401 -11.373  20.323  0.00  0.00    +0.051 C 
ATOM     18  C   UNL     1     -31.595 -10.140  20.731  0.00  0.00    +0.150 C 
ATOM     19  O   UNL     1     -32.421  -9.279  21.503  0.00  0.00    -0.372 OA
ATOM     20  C   UNL     1     -32.073  -7.909  21.375  0.00  0.00    +0.188 C 
ATOM     21  C   UNL     1     -30.592  -7.683  21.003  0.00  0.00    +0.188 C 
ATOM     22  O   UNL     1     -30.200  -8.329  19.800  0.00  0.00    -0.370 OA
ATOM     23  C   UNL     1     -31.018  -9.443  19.471  0.00  0.00    +0.163 C 
ATOM     24  C   UNL     1     -30.188 -10.441  18.648  0.00  0.00    +0.143 C 
ENDBRANCH   1  15
TORSDOF 2
ENDMDL
MODEL 4
REMARK VINA RESULT:    -5.771      0.767      2.390
REMARK INTER + INTRA:          -6.297
REMARK INTER:                  -6.374
REMARK INTRA:                   0.077
REMARK UNBOUND:                 0.149
REMARK  Name = 
REMARK  3 active torsions:
REMARK  status: ('A' for Active; 'I' for Inactive)
REMARK    1  A    between atoms: C_1  and  C_2
REMARK    2  A    between atoms: C_5  and  S_12
REMARK    3  A    between atoms: S_12  and  N_15
REMARK                            x       y       z     vdW  Elec       q    Type
REMARK                         _______ _______ _______ _____ _____    ______ ____
ROOT
ATOM      1  S   UNL     1     -30.203 -13.830  16.910  0.00  0.00    +0.062 S 
ATOM      2  O   UNL     1     -28.819 -14.198  16.454  0.00  0.00    -0.153 OA
ATOM      3  O   UNL     1     -30.834 -15.047  17.527  0.00  0.00    -0.153 OA
ENDROOT
BRANCH   1   8
ATOM      4  C   UNL     1     -33.383 -12.194  11.952  0.00  0.00    +0.044 C 
ATOM      5  C   UNL     1     -32.647 -12.569  13.215  0.00  0.00    -0.043 A 
ATOM      6  C   UNL     1     -31.486 -13.345  13.108  0.00  0.00    +0.006 A 
ATOM      7  C   UNL     1     -30.769 -13.717  14.239  0.00  0.00    +0.029 A 
ATOM      8  C   UNL     1     -31.186 -13.330  15.518  0.00  0.00    +0.113 A 
ATOM      9  C   UNL     1     -32.358 -12.541  15.659  0.00  0.00    +0.009 A 
ATOM     10  C   UNL     1     -32.819 -12.119  16.925  0.00  0.00    +0.010 A 
ATOM     11  C   UNL     1     -33.969 -11.342  17.045  0.00  0.00    +0.001 A 
ATOM     12  C   UNL     1     -34.685 -10.969  15.912  0.00  0.00    +0.001 A 
ATOM     13  C   UNL     1     -34.256 -11.371  14.649  0.00  0.00    +0.009 A 
ATOM     14  C   UNL     1     -33.093 -12.158  14.496  0.00  0.00    -0.013 A 
ENDBRANCH   1   8
BRANCH   1  15
ATOM     15  N   UNL     1     -30.142 -12.529  18.081  0.00  0.00    -0.174 NA
ATOM     16  C   UNL     1     -29.066 -11.554  17.813  0.00  0.00    +0.112 C 
ATOM     17  C   UNL     1     -27.686 -12.034  18.282  0.00  0.00    +0.051 C 
ATOM     18  C   UNL     1     -27.722 -12.449  19.754  0.00  0.00    +0.150 C 
ATOM     19  O   UNL     1     -26.431 -12.897  20.141  0.00  0.00    -0.372 OA
ATOM     20  C   UNL     1     -26.465 -13.876  21.168  0.00  0.00    +0.188 C 
ATOM     21  C   UNL     1     -27.721 -13.787  22.061  0.00  0.00    +0.188 C 
ATOM     22  O   UNL     1     -28.941 -13.892  21.341  0.00  0.00    -0.370 OA
ATOM     23  C   UNL     1     -28.818 -13.523  19.975  0.00  0.00    +0.163 C 
ATOM     24  C   UNL     1     -30.177 -13.001  19.479  0.00  0.00    +0.143 C 
ENDBRANCH   1  15
TORSDOF 2
ENDMDL
MODEL 5
REMARK VINA RESULT:    -5.597      1.687      2.410
REMARK INTER + INTRA:          -6.103
REMARK INTER:                  -6.207
REMARK INTRA:                   0.104
REMARK UNBOUND:                 0.149
REMARK  Name = 
REMARK  3 active torsions:
REMARK  status: ('A' for Active; 'I' for Inactive)
REMARK    1  A    between atoms: C_1  and  C_2
REMARK    2  A    between atoms: C_5  and  S_12
REMARK    3  A    between atoms: S_12  and  N_15
REMARK                            x       y       z     vdW  Elec       q    Type
REMARK                         _______ _______ _______ _____ _____    ______ ____
ROOT
ATOM      1  S   UNL     1     -30.157 -10.938  17.840  0.00  0.00    +0.062 S 
ATOM      2  O   UNL     1     -30.423 -10.343  19.194  0.00  0.00    -0.153 OA
ATOM      3  O   UNL     1     -28.891 -10.332  17.301  0.00  0.00    -0.153 OA
ENDROOT
BRANCH   1   8
ATOM      4  C   UNL     1     -34.833  -9.396  14.218  0.00  0.00    +0.044 C 
ATOM      5  C   UNL     1     -33.661  -9.825  15.067  0.00  0.00    -0.043 A 
ATOM      6  C   UNL     1     -33.370  -9.094  16.225  0.00  0.00    +0.006 A 
ATOM      7  C   UNL     1     -32.303  -9.447  17.042  0.00  0.00    +0.029 A 
ATOM      8  C   UNL     1     -31.487 -10.541  16.732  0.00  0.00    +0.113 A 
ATOM      9  C   UNL     1     -31.758 -11.303  15.566  0.00  0.00    +0.009 A 
ATOM     10  C   UNL     1     -30.970 -12.421  15.211  0.00  0.00    +0.010 A 
ATOM     11  C   UNL     1     -31.253 -13.160  14.065  0.00  0.00    +0.001 A 
ATOM     12  C   UNL     1     -32.321 -12.807  13.247  0.00  0.00    +0.001 A 
ATOM     13  C   UNL     1     -33.117 -11.709  13.571  0.00  0.00    +0.009 A 
ATOM     14  C   UNL     1     -32.856 -10.942  14.727  0.00  0.00    -0.013 A 
ENDBRANCH   1   8
BRANCH   1  15
ATOM     15  N   UNL     1     -29.987 -12.677  17.952  0.00  0.00    -0.174 NA
ATOM     16  C   UNL     1     -30.888 -13.288  18.949  0.00  0.00    +0.112 C 
ATOM     17  C   UNL     1     -30.376 -13.151  20.389  0.00  0.00    +0.051 C 
ATOM     18  C   UNL     1     -28.947 -13.682  20.516  0.00  0.00    +0.150 C 
ATOM     19  O   UNL     1     -28.510 -13.524  21.858  0.00  0.00    -0.372 OA
ATOM     20  C   UNL     1     -27.107 -13.338  21.969  0.00  0.00    +0.188 C 
ATOM     21  C   UNL     1     -26.310 -13.958  20.802  0.00  0.00    +0.188 C 
ATOM     22  O   UNL     1     -26.696 -13.472  19.525  0.00  0.00    -0.370 OA
ATOM     23  C   UNL     1     -28.023 -12.964  19.498  0.00  0.00    +0.163 C 
ATOM     24  C   UNL     1     -28.583 -13.119  18.074  0.00  0.00    +0.143 C 
ENDBRANCH   1  15
TORSDOF 2
ENDMDL
MODEL 6
REMARK VINA RESULT:    -5.155      1.773      2.462
REMARK INTER + INTRA:          -5.609
REMARK INTER:                  -5.550
REMARK INTRA:                  -0.059
REMARK UNBOUND:                 0.149
REMARK  Name = 
REMARK  3 active torsions:
REMARK  status: ('A' for Active; 'I' for Inactive)
REMARK    1  A    between atoms: C_1  and  C_2
REMARK    2  A    between atoms: C_5  and  S_12
REMARK    3  A    between atoms: S_12  and  N_15
REMARK                            x       y       z     vdW  Elec       q    Type
REMARK                         _______ _______ _______ _____ _____    ______ ____
ROOT
ATOM      1  S   UNL     1     -31.258 -11.138  17.022  0.00  0.00    +0.062 S 
ATOM      2  O   UNL     1     -31.556 -10.013  17.973  0.00  0.00    -0.153 OA
ATOM      3  O   UNL     1     -29.831 -11.004  16.568  0.00  0.00    -0.153 OA
ENDROOT
BRANCH   1   8
ATOM      4  C   UNL     1     -35.062 -10.575  12.270  0.00  0.00    +0.044 C 
ATOM      5  C   UNL     1     -34.088 -10.762  13.408  0.00  0.00    -0.043 A 
ATOM      6  C   UNL     1     -34.196  -9.925  14.525  0.00  0.00    +0.006 A 
ATOM      7  C   UNL     1     -33.326 -10.055  15.601  0.00  0.00    +0.029 A 
ATOM      8  C   UNL     1     -32.315 -11.024  15.599  0.00  0.00    +0.113 A 
ATOM      9  C   UNL     1     -32.182 -11.888  14.482  0.00  0.00    +0.009 A 
ATOM     10  C   UNL     1     -31.184 -12.887  14.432  0.00  0.00    +0.010 A 
ATOM     11  C   UNL     1     -31.070 -13.729  13.328  0.00  0.00    +0.001 A 
ATOM     12  C   UNL     1     -31.941 -13.599  12.252  0.00  0.00    +0.001 A 
ATOM     13  C   UNL     1     -32.937 -12.623  12.272  0.00  0.00    +0.009 A 
ATOM     14  C   UNL     1     -33.078 -11.756  13.377  0.00  0.00    -0.013 A 
ENDBRANCH   1   8
BRANCH   1  15
ATOM     15  N   UNL     1     -31.494 -12.687  17.803  0.00  0.00    -0.174 NA
ATOM     16  C   UNL     1     -32.383 -12.617  18.980  0.00  0.00    +0.112 C 
ATOM     17  C   UNL     1     -31.678 -12.095  20.239  0.00  0.00    +0.051 C 
ATOM     18  C   UNL     1     -30.412 -12.902  20.532  0.00  0.00    +0.150 C 
ATOM     19  O   UNL     1     -29.786 -12.378  21.695  0.00  0.00    -0.372 OA
ATOM     20  C   UNL     1     -28.377 -12.546  21.693  0.00  0.00    +0.188 C 
ATOM     21  C   UNL     1     -27.902 -13.746  20.846  0.00  0.00    +0.188 C 
ATOM     22  O   UNL     1     -28.318 -13.687  19.489  0.00  0.00    -0.370 OA
ATOM     23  C   UNL     1     -29.478 -12.891  19.294  0.00  0.00    +0.163 C 
ATOM     24  C   UNL     1     -30.232 -13.409  18.058  0.00  0.00    +0.143 C 
ENDBRANCH   1  15
TORSDOF 2
ENDMDL
MODEL 7
REMARK VINA RESULT:    -5.138      3.251      4.435
REMARK INTER + INTRA:          -5.589
REMARK INTER:                  -5.744
REMARK INTRA:                   0.155
REMARK UNBOUND:                 0.149
REMARK  Name = 
REMARK  3 active torsions:
REMARK  status: ('A' for Active; 'I' for Inactive)
REMARK    1  A    between atoms: C_1  and  C_2
REMARK    2  A    between atoms: C_5  and  S_12
REMARK    3  A    between atoms: S_12  and  N_15
REMARK                            x       y       z     vdW  Elec       q    Type
REMARK                         _______ _______ _______ _____ _____    ______ ____
ROOT
ATOM      1  S   UNL     1     -33.558 -11.214  17.224  0.00  0.00    +0.062 S 
ATOM      2  O   UNL     1     -33.118 -12.023  18.411  0.00  0.00    -0.153 OA
ATOM      3  O   UNL     1     -35.061 -11.204  17.193  0.00  0.00    -0.153 OA
ENDROOT
BRANCH   1   8
ATOM      4  C   UNL     1     -31.753 -13.698  11.938  0.00  0.00    +0.044 C 
ATOM      5  C   UNL     1     -32.147 -13.118  13.274  0.00  0.00    -0.043 A 
ATOM      6  C   UNL     1     -33.188 -12.183  13.317  0.00  0.00    +0.006 A 
ATOM      7  C   UNL     1     -33.592 -11.618  14.522  0.00  0.00    +0.029 A 
ATOM      8  C   UNL     1     -32.969 -11.965  15.727  0.00  0.00    +0.113 A 
ATOM      9  C   UNL     1     -31.912 -12.912  15.715  0.00  0.00    +0.009 A 
ATOM     10  C   UNL     1     -31.254 -13.302  16.903  0.00  0.00    +0.010 A 
ATOM     11  C   UNL     1     -30.220 -14.236  16.875  0.00  0.00    +0.001 A 
ATOM     12  C   UNL     1     -29.818 -14.801  15.669  0.00  0.00    +0.001 A 
ATOM     13  C   UNL     1     -30.448 -14.436  14.480  0.00  0.00    +0.009 A 
ATOM     14  C   UNL     1     -31.499 -13.493  14.478  0.00  0.00    -0.013 A 
ENDBRANCH   1   8
BRANCH   1  15
ATOM     15  N   UNL     1     -32.951  -9.574  17.333  0.00  0.00    -0.174 NA
ATOM     16  C   UNL     1     -31.530  -9.452  16.951  0.00  0.00    +0.112 C 
ATOM     17  C   UNL     1     -30.566  -9.878  18.068  0.00  0.00    +0.051 C 
ATOM     18  C   UNL     1     -30.870  -9.132  19.368  0.00  0.00    +0.150 C 
ATOM     19  O   UNL     1     -29.966  -9.565  20.374  0.00  0.00    -0.372 OA
ATOM     20  C   UNL     1     -30.512  -9.495  21.682  0.00  0.00    +0.188 C 
ATOM     21  C   UNL     1     -31.622  -8.432  21.829  0.00  0.00    +0.188 C 
ATOM     22  O   UNL     1     -32.708  -8.613  20.932  0.00  0.00    -0.370 OA
ATOM     23  C   UNL     1     -32.354  -9.345  19.766  0.00  0.00    +0.163 C 
ATOM     24  C   UNL     1     -33.278  -8.916  18.614  0.00  0.00    +0.143 C 
ENDBRANCH   1  15
TORSDOF 2
ENDMDL
