MODEL 1
REMARK VINA RESULT:    -5.040      0.000      0.000
REMARK INTER + INTRA:          -7.663
REMARK INTER:                  -6.514
REMARK INTRA:                  -1.149
REMARK UNBOUND:                -1.149
REMARK  Name = 
REMARK  7 active torsions:
REMARK  status: ('A' for Active; 'I' for Inactive)
REMARK    1  A    between atoms: C_1  and  O_2
REMARK    2  A    between atoms: O_2  and  C_3
REMARK    3  A    between atoms: C_6  and  C_9
REMARK    4  A    between atoms: C_9  and  N_10
REMARK    5  A    between atoms: C_9  and  C_21
REMARK    6  A    between atoms: C_11  and  C_13
REMARK    7  A    between atoms: C_16  and  C_17
REMARK                            x       y       z     vdW  Elec       q    Type
REMARK                         _______ _______ _______ _____ _____    ______ ____
ROOT
ATOM      1  C   UNL     1     -31.294  -9.858  17.378  0.00  0.00    +0.134 C 
ENDROOT
BRANCH   1   5
ATOM      2  C   UNL     1     -33.472 -11.203  13.875  0.00  0.00    +0.120 A 
ATOM      3  C   UNL     1     -33.935 -10.111  14.616  0.00  0.00    +0.046 A 
ATOM      4  C   UNL     1     -33.242  -9.677  15.749  0.00  0.00    +0.009 A 
ATOM      5  C   UNL     1     -32.072 -10.338  16.168  0.00  0.00    -0.023 A 
ATOM      6  C   UNL     1     -31.604 -11.429  15.417  0.00  0.00    +0.009 A 
ATOM      7  C   UNL     1     -32.298 -11.862  14.282  0.00  0.00    +0.046 A 
BRANCH   2   9
ATOM      8  C   UNL     1     -33.887 -12.728  11.938  0.00  0.00    +0.277 C 
ATOM      9  O   UNL     1     -34.204 -11.600  12.745  0.00  0.00    -0.495 OA
ENDBRANCH   2   9
ENDBRANCH   1   5
BRANCH   1  10
ATOM     10  C   UNL     1     -32.253  -9.503  18.498  0.00  0.00    -0.023 A 
ATOM     11  C   UNL     1     -32.895 -10.529  19.213  0.00  0.00    +0.006 A 
ATOM     12  C   UNL     1     -33.756 -10.224  20.271  0.00  0.00    +0.000 A 
ATOM     13  C   UNL     1     -33.975  -8.893  20.634  0.00  0.00    +0.000 A 
ATOM     14  C   UNL     1     -33.330  -7.865  19.943  0.00  0.00    +0.000 A 
ATOM     15  C   UNL     1     -32.468  -8.165  18.884  0.00  0.00    +0.006 A 
ENDBRANCH   1  10
BRANCH   1  16
ATOM     16  N   UNL     1     -30.307 -10.858  17.809  0.00  0.00    -0.300 N 
ATOM     17  C   UNL     1     -29.381 -10.599  18.877  0.00  0.00    +0.250 C 
ATOM     18  O   UNL     1     -29.283  -9.435  19.352  0.00  0.00    -0.270 OA
ATOM     19  H   UNL     1     -30.197 -11.742  17.263  0.00  0.00    +0.150 HD
BRANCH  17  20
ATOM     20  C   UNL     1     -28.512 -11.676  19.411  0.00  0.00    +0.101 A 
ATOM     21  C   UNL     1     -29.038 -12.593  20.333  0.00  0.00    +0.020 A 
ATOM     22  C   UNL     1     -28.238 -13.609  20.853  0.00  0.00    +0.022 A 
ATOM     23  C   UNL     1     -26.901 -13.707  20.452  0.00  0.00    +0.016 A 
ATOM     24  C   UNL     1     -26.041 -14.818  20.977  0.00  0.00    +0.063 C 
ATOM     25  N   UNL     1     -26.407 -12.834  19.527  0.00  0.00    -0.326 N 
ATOM     26  C   UNL     1     -27.171 -11.835  19.000  0.00  0.00    +0.261 A 
ATOM     27  O   UNL     1     -26.673 -11.077  18.125  0.00  0.00    -0.267 OA
ATOM     28  H   UNL     1     -25.418 -12.936  19.204  0.00  0.00    +0.169 HD
ENDBRANCH  17  20
ENDBRANCH   1  16
TORSDOF 5
ENDMDL
MODEL 2
REMARK VINA RESULT:    -5.005      2.347      7.061
REMARK INTER + INTRA:          -7.618
REMARK INTER:                  -6.163
REMARK INTRA:                  -1.454
REMARK UNBOUND:                -1.149
REMARK  Name = 
REMARK  7 active torsions:
REMARK  status: ('A' for Active; 'I' for Inactive)
REMARK    1  A    between atoms: C_1  and  O_2
REMARK    2  A    between atoms: O_2  and  C_3
REMARK    3  A    between atoms: C_6  and  C_9
REMARK    4  A    between atoms: C_9  and  N_10
REMARK    5  A    between atoms: C_9  and  C_21
REMARK    6  A    between atoms: C_11  and  C_13
REMARK    7  A    between atoms: C_16  and  C_17
REMARK                            x       y       z     vdW  Elec       q    Type
REMARK                         _______ _______ _______ _____ _____    ______ ____
ROOT
ATOM      1  C   UNL     1     -31.093 -11.359  19.326  0.00  0.00    +0.134 C 
ENDROOT
BRANCH   1   5
ATOM      2  C   UNL     1     -27.131 -13.085  19.719  0.00  0.00    +0.120 A 
ATOM      3  C   UNL     1     -28.207 -13.616  20.439  0.00  0.00    +0.046 A 
ATOM      4  C   UNL     1     -29.484 -13.061  20.322  0.00  0.00    +0.009 A 
ATOM      5  C   UNL     1     -29.706 -11.952  19.485  0.00  0.00    -0.023 A 
ATOM      6  C   UNL     1     -28.627 -11.425  18.756  0.00  0.00    +0.009 A 
ATOM      7  C   UNL     1     -27.350 -11.983  18.873  0.00  0.00    +0.046 A 
BRANCH   2   9
ATOM      8  C   UNL     1     -25.430 -14.344  21.050  0.00  0.00    +0.277 C 
ATOM      9  O   UNL     1     -25.869 -13.678  19.871  0.00  0.00    -0.495 OA
ENDBRANCH   2   9
ENDBRANCH   1   5
BRANCH   1  10
ATOM     10  C   UNL     1     -31.146  -9.992  19.980  0.00  0.00    -0.023 A 
ATOM     11  C   UNL     1     -30.813  -9.861  21.340  0.00  0.00    +0.006 A 
ATOM     12  C   UNL     1     -30.824  -8.605  21.953  0.00  0.00    +0.000 A 
ATOM     13  C   UNL     1     -31.153  -7.466  21.214  0.00  0.00    +0.000 A 
ATOM     14  C   UNL     1     -31.469  -7.581  19.858  0.00  0.00    +0.000 A 
ATOM     15  C   UNL     1     -31.460  -8.835  19.240  0.00  0.00    +0.006 A 
ENDBRANCH   1  10
BRANCH   1  16
ATOM     16  N   UNL     1     -31.489 -11.297  17.912  0.00  0.00    -0.300 N 
ATOM     17  C   UNL     1     -32.325 -12.300  17.313  0.00  0.00    +0.250 C 
ATOM     18  O   UNL     1     -32.594 -13.354  17.952  0.00  0.00    -0.270 OA
ATOM     19  H   UNL     1     -31.072 -10.566  17.292  0.00  0.00    +0.150 HD
BRANCH  17  20
ATOM     20  C   UNL     1     -32.854 -12.131  15.938  0.00  0.00    +0.101 A 
ATOM     21  C   UNL     1     -32.012 -12.368  14.842  0.00  0.00    +0.020 A 
ATOM     22  C   UNL     1     -32.485 -12.209  13.541  0.00  0.00    +0.022 A 
ATOM     23  C   UNL     1     -33.810 -11.808  13.333  0.00  0.00    +0.016 A 
ATOM     24  C   UNL     1     -34.341 -11.669  11.938  0.00  0.00    +0.063 C 
ATOM     25  N   UNL     1     -34.633 -11.616  14.404  0.00  0.00    -0.326 N 
ATOM     26  C   UNL     1     -34.195 -11.770  15.686  0.00  0.00    +0.261 A 
ATOM     27  O   UNL     1     -35.007 -11.611  16.637  0.00  0.00    -0.267 OA
ATOM     28  H   UNL     1     -35.632 -11.352  14.241  0.00  0.00    +0.169 HD
ENDBRANCH  17  20
ENDBRANCH   1  16
TORSDOF 5
ENDMDL
MODEL 3
REMARK VINA RESULT:    -4.905      1.087      1.271
REMARK INTER + INTRA:          -7.488
REMARK INTER:                  -6.193
REMARK INTRA:                  -1.294
REMARK UNBOUND:                -1.149
REMARK  Name = 
REMARK  7 active torsions:
REMARK  status: ('A' for Active; 'I' for Inactive)
REMARK    1  A    between atoms: C_1  and  O_2
REMARK    2  A    between atoms: O_2  and  C_3
REMARK    3  A    between atoms: C_6  and  C_9
REMARK    4  A    between atoms: C_9  and  N_10
REMARK    5  A    between atoms: C_9  and  C_21
REMARK    6  A    between atoms: C_11  and  C_13
REMARK    7  A    between atoms: C_16  and  C_17
REMARK                            x       y       z     vdW  Elec       q    Type
REMARK                         _______ _______ _______ _____ _____    ______ ____
ROOT
ATOM      1  C   UNL     1     -31.860 -10.154  18.682  0.00  0.00    +0.134 C 
ENDROOT
BRANCH   1   5
ATOM      2  C   UNL     1     -34.055 -11.173  15.082  0.00  0.00    +0.120 A 
ATOM      3  C   UNL     1     -33.407  -9.938  15.186  0.00  0.00    +0.046 A 
ATOM      4  C   UNL     1     -32.703  -9.601  16.346  0.00  0.00    +0.009 A 
ATOM      5  C   UNL     1     -32.644 -10.495  17.430  0.00  0.00    -0.023 A 
ATOM      6  C   UNL     1     -33.288 -11.739  17.320  0.00  0.00    +0.009 A 
ATOM      7  C   UNL     1     -33.991 -12.076  16.159  0.00  0.00    +0.046 A 
BRANCH   2   9
ATOM      8  C   UNL     1     -34.154 -12.048  12.742  0.00  0.00    +0.277 C 
ATOM      9  O   UNL     1     -34.747 -11.465  13.897  0.00  0.00    -0.495 OA
ENDBRANCH   2   9
ENDBRANCH   1   5
BRANCH   1  10
ATOM     10  C   UNL     1     -32.811  -9.935  19.842  0.00  0.00    -0.023 A 
ATOM     11  C   UNL     1     -32.986 -10.952  20.797  0.00  0.00    +0.006 A 
ATOM     12  C   UNL     1     -33.833 -10.758  21.892  0.00  0.00    +0.000 A 
ATOM     13  C   UNL     1     -34.503  -9.543  22.053  0.00  0.00    +0.000 A 
ATOM     14  C   UNL     1     -34.324  -8.518  21.121  0.00  0.00    +0.000 A 
ATOM     15  C   UNL     1     -33.478  -8.707  20.024  0.00  0.00    +0.006 A 
ENDBRANCH   1  10
BRANCH   1  16
ATOM     16  N   UNL     1     -30.864 -11.190  18.988  0.00  0.00    -0.300 N 
ATOM     17  C   UNL     1     -29.464 -10.888  19.105  0.00  0.00    +0.250 C 
ATOM     18  O   UNL     1     -29.040  -9.747  18.773  0.00  0.00    -0.270 OA
ATOM     19  H   UNL     1     -31.157 -12.193  19.020  0.00  0.00    +0.150 HD
BRANCH  17  20
ATOM     20  C   UNL     1     -28.499 -11.909  19.583  0.00  0.00    +0.101 A 
ATOM     21  C   UNL     1     -28.922 -12.876  20.506  0.00  0.00    +0.020 A 
ATOM     22  C   UNL     1     -28.031 -13.841  20.973  0.00  0.00    +0.022 A 
ATOM     23  C   UNL     1     -26.708 -13.837  20.518  0.00  0.00    +0.016 A 
ATOM     24  C   UNL     1     -25.751 -14.893  20.985  0.00  0.00    +0.063 C 
ATOM     25  N   UNL     1     -26.315 -12.915  19.592  0.00  0.00    -0.326 N 
ATOM     26  C   UNL     1     -27.169 -11.965  19.115  0.00  0.00    +0.261 A 
ATOM     27  O   UNL     1     -26.762 -11.158  18.236  0.00  0.00    -0.267 OA
ATOM     28  H   UNL     1     -25.335 -12.941  19.227  0.00  0.00    +0.169 HD
ENDBRANCH  17  20
ENDBRANCH   1  16
TORSDOF 5
ENDMDL
MODEL 4
REMARK VINA RESULT:    -4.797      2.059      4.774
REMARK INTER + INTRA:          -7.348
REMARK INTER:                  -5.568
REMARK INTRA:                  -1.780
REMARK UNBOUND:                -1.149
REMARK  Name = 
REMARK  7 active torsions:
REMARK  status: ('A' for Active; 'I' for Inactive)
REMARK    1  A    between atoms: C_1  and  O_2
REMARK    2  A    between atoms: O_2  and  C_3
REMARK    3  A    between atoms: C_6  and  C_9
REMARK    4  A    between atoms: C_9  and  N_10
REMARK    5  A    between atoms: C_9  and  C_21
REMARK    6  A    between atoms: C_11  and  C_13
REMARK    7  A    between atoms: C_16  and  C_17
REMARK                            x       y       z     vdW  Elec       q    Type
REMARK                         _______ _______ _______ _____ _____    ______ ____
ROOT
ATOM      1  C   UNL     1     -32.293 -11.476  18.475  0.00  0.00    +0.134 C 
ENDROOT
BRANCH   1   5
ATOM      2  C   UNL     1     -33.398  -7.602  20.087  0.00  0.00    +0.120 A 
ATOM      3  C   UNL     1     -32.354  -7.710  19.163  0.00  0.00    +0.046 A 
ATOM      4  C   UNL     1     -31.988  -8.955  18.644  0.00  0.00    +0.009 A 
ATOM      5  C   UNL     1     -32.660 -10.123  19.052  0.00  0.00    -0.023 A 
ATOM      6  C   UNL     1     -33.714 -10.012  19.973  0.00  0.00    +0.009 A 
ATOM      7  C   UNL     1     -34.079  -8.765  20.490  0.00  0.00    +0.046 A 
BRANCH   2   9
ATOM      8  C   UNL     1     -33.195  -5.111  20.069  0.00  0.00    +0.277 C 
ATOM      9  O   UNL     1     -33.726  -6.329  20.577  0.00  0.00    -0.495 OA
ENDBRANCH   2   9
ENDBRANCH   1   5
BRANCH   1  10
ATOM     10  C   UNL     1     -32.607 -11.506  16.992  0.00  0.00    -0.023 A 
ATOM     11  C   UNL     1     -31.556 -11.600  16.062  0.00  0.00    +0.006 A 
ATOM     12  C   UNL     1     -31.826 -11.663  14.692  0.00  0.00    +0.000 A 
ATOM     13  C   UNL     1     -33.146 -11.644  14.236  0.00  0.00    +0.000 A 
ATOM     14  C   UNL     1     -34.200 -11.567  15.150  0.00  0.00    +0.000 A 
ATOM     15  C   UNL     1     -33.935 -11.505  16.522  0.00  0.00    +0.006 A 
ENDBRANCH   1  10
BRANCH   1  16
ATOM     16  N   UNL     1     -30.885 -11.805  18.736  0.00  0.00    -0.300 N 
ATOM     17  C   UNL     1     -30.451 -12.343  19.995  0.00  0.00    +0.250 C 
ATOM     18  O   UNL     1     -31.252 -12.381  20.969  0.00  0.00    -0.270 OA
ATOM     19  H   UNL     1     -30.157 -11.546  18.031  0.00  0.00    +0.150 HD
BRANCH  17  20
ATOM     20  C   UNL     1     -29.062 -12.828  20.180  0.00  0.00    +0.101 A 
ATOM     21  C   UNL     1     -28.791 -13.780  21.174  0.00  0.00    +0.020 A 
ATOM     22  C   UNL     1     -27.492 -14.246  21.370  0.00  0.00    +0.022 A 
ATOM     23  C   UNL     1     -26.455 -13.754  20.570  0.00  0.00    +0.016 A 
ATOM     24  C   UNL     1     -25.060 -14.274  20.747  0.00  0.00    +0.063 C 
ATOM     25  N   UNL     1     -26.733 -12.856  19.581  0.00  0.00    -0.326 N 
ATOM     26  C   UNL     1     -27.996 -12.389  19.366  0.00  0.00    +0.261 A 
ATOM     27  O   UNL     1     -28.201 -11.584  18.417  0.00  0.00    -0.267 OA
ATOM     28  H   UNL     1     -25.960 -12.520  18.962  0.00  0.00    +0.169 HD
ENDBRANCH  17  20
ENDBRANCH   1  16
TORSDOF 5
ENDMDL
MODEL 5
REMARK VINA RESULT:    -4.486      2.684      6.127
REMARK INTER + INTRA:          -6.947
REMARK INTER:                  -5.473
REMARK INTRA:                  -1.474
REMARK UNBOUND:                -1.149
REMARK  Name = 
REMARK  7 active torsions:
REMARK  status: ('A' for Active; 'I' for Inactive)
REMARK    1  A    between atoms: C_1  and  O_2
REMARK    2  A    between atoms: O_2  and  C_3
REMARK    3  A    between atoms: C_6  and  C_9
REMARK    4  A    between atoms: C_9  and  N_10
REMARK    5  A    between atoms: C_9  and  C_21
REMARK    6  A    between atoms: C_11  and  C_13
REMARK    7  A    between atoms: C_16  and  C_17
REMARK                            x       y       z     vdW  Elec       q    Type
REMARK                         _______ _______ _______ _____ _____    ______ ____
ROOT
ATOM      1  C   UNL     1     -31.035 -12.903  18.099  0.00  0.00    +0.134 C 
ENDROOT
BRANCH   1   5
ATOM      2  C   UNL     1     -30.128 -14.249  14.075  0.00  0.00    +0.120 A 
ATOM      3  C   UNL     1     -29.677 -14.977  15.181  0.00  0.00    +0.046 A 
ATOM      4  C   UNL     1     -29.959 -14.546  16.480  0.00  0.00    +0.009 A 
ATOM      5  C   UNL     1     -30.696 -13.366  16.696  0.00  0.00    -0.023 A 
ATOM      6  C   UNL     1     -31.156 -12.641  15.585  0.00  0.00    +0.009 A 
ATOM      7  C   UNL     1     -30.873 -13.075  14.285  0.00  0.00    +0.046 A 
BRANCH   2   9
ATOM      8  C   UNL     1     -28.507 -14.755  12.241  0.00  0.00    +0.277 C 
ATOM      9  O   UNL     1     -29.819 -14.725  12.792  0.00  0.00    -0.495 OA
ENDBRANCH   2   9
ENDBRANCH   1   5
BRANCH   1  10
ATOM     10  C   UNL     1     -29.802 -12.980  18.979  0.00  0.00    -0.023 A 
ATOM     11  C   UNL     1     -28.595 -12.414  18.532  0.00  0.00    +0.006 A 
ATOM     12  C   UNL     1     -27.456 -12.445  19.342  0.00  0.00    +0.000 A 
ATOM     13  C   UNL     1     -27.513 -13.029  20.609  0.00  0.00    +0.000 A 
ATOM     14  C   UNL     1     -28.710 -13.581  21.072  0.00  0.00    +0.000 A 
ATOM     15  C   UNL     1     -29.852 -13.552  20.266  0.00  0.00    +0.006 A 
ENDBRANCH   1  10
BRANCH   1  16
ATOM     16  N   UNL     1     -31.609 -11.550  18.092  0.00  0.00    -0.300 N 
ATOM     17  C   UNL     1     -32.546 -11.117  19.091  0.00  0.00    +0.250 C 
ATOM     18  O   UNL     1     -33.029 -11.954  19.901  0.00  0.00    -0.270 OA
ATOM     19  H   UNL     1     -31.418 -10.914  17.284  0.00  0.00    +0.150 HD
BRANCH  17  20
ATOM     20  C   UNL     1     -32.980  -9.701  19.168  0.00  0.00    +0.101 A 
ATOM     21  C   UNL     1     -33.778  -9.282  20.242  0.00  0.00    +0.020 A 
ATOM     22  C   UNL     1     -34.203  -7.958  20.332  0.00  0.00    +0.022 A 
ATOM     23  C   UNL     1     -33.831  -7.045  19.338  0.00  0.00    +0.016 A 
ATOM     24  C   UNL     1     -34.252  -5.610  19.442  0.00  0.00    +0.063 C 
ATOM     25  N   UNL     1     -33.024  -7.452  18.316  0.00  0.00    -0.326 N 
ATOM     26  C   UNL     1     -32.591  -8.740  18.210  0.00  0.00    +0.261 A 
ATOM     27  O   UNL     1     -31.820  -9.054  17.262  0.00  0.00    -0.267 OA
ATOM     28  H   UNL     1     -32.718  -6.757  17.597  0.00  0.00    +0.169 HD
ENDBRANCH  17  20
ENDBRANCH   1  16
TORSDOF 5
ENDMDL
MODEL 6
REMARK VINA RESULT:    -4.476      2.369      7.399
REMARK INTER + INTRA:          -6.934
REMARK INTER:                  -5.721
REMARK INTRA:                  -1.212
REMARK UNBOUND:                -1.149
REMARK  Name = 
REMARK  7 active torsions:
REMARK  status: ('A' for Active; 'I' for Inactive)
REMARK    1  A    between atoms: C_1  and  O_2
REMARK    2  A    between atoms: O_2  and  C_3
REMARK    3  A    between atoms: C_6  and  C_9
REMARK    4  A    between atoms: C_9  and  N_10
REMARK    5  A    between atoms: C_9  and  C_21
REMARK    6  A    between atoms: C_11  and  C_13
REMARK    7  A    between atoms: C_16  and  C_17
REMARK                            x       y       z     vdW  Elec       q    Type
REMARK                         _______ _______ _______ _____ _____    ______ ____
ROOT
ATOM      1  C   UNL     1     -30.173 -11.016  17.521  0.00  0.00    +0.134 C 
ENDROOT
BRANCH   1   5
ATOM      2  C   UNL     1     -28.554 -13.477  20.706  0.00  0.00    +0.120 A 
ATOM      3  C   UNL     1     -27.697 -12.804  19.831  0.00  0.00    +0.046 A 
ATOM      4  C   UNL     1     -28.211 -12.015  18.798  0.00  0.00    +0.009 A 
ATOM      5  C   UNL     1     -29.601 -11.893  18.618  0.00  0.00    -0.023 A 
ATOM      6  C   UNL     1     -30.461 -12.563  19.504  0.00  0.00    +0.009 A 
ATOM      7  C   UNL     1     -29.945 -13.351  20.537  0.00  0.00    +0.046 A 
BRANCH   2   9
ATOM      8  C   UNL     1     -26.601 -14.281  22.044  0.00  0.00    +0.277 C 
ATOM      9  O   UNL     1     -27.988 -14.256  21.727  0.00  0.00    -0.495 OA
ENDBRANCH   2   9
ENDBRANCH   1   5
BRANCH   1  10
ATOM     10  C   UNL     1     -30.661 -11.880  16.374  0.00  0.00    -0.023 A 
ATOM     11  C   UNL     1     -31.610 -11.365  15.473  0.00  0.00    +0.006 A 
ATOM     12  C   UNL     1     -32.048 -12.132  14.390  0.00  0.00    +0.000 A 
ATOM     13  C   UNL     1     -31.535 -13.415  14.187  0.00  0.00    +0.000 A 
ATOM     14  C   UNL     1     -30.580 -13.933  15.066  0.00  0.00    +0.000 A 
ATOM     15  C   UNL     1     -30.138 -13.169  16.150  0.00  0.00    +0.006 A 
ENDBRANCH   1  10
BRANCH   1  16
ATOM     16  N   UNL     1     -31.239 -10.145  18.033  0.00  0.00    -0.300 N 
ATOM     17  C   UNL     1     -30.962  -9.038  18.907  0.00  0.00    +0.250 C 
ATOM     18  O   UNL     1     -29.807  -8.899  19.393  0.00  0.00    -0.270 OA
ATOM     19  H   UNL     1     -32.238 -10.391  17.848  0.00  0.00    +0.150 HD
BRANCH  17  20
ATOM     20  C   UNL     1     -32.024  -8.071  19.274  0.00  0.00    +0.101 A 
ATOM     21  C   UNL     1     -31.790  -7.149  20.305  0.00  0.00    +0.020 A 
ATOM     22  C   UNL     1     -32.777  -6.235  20.671  0.00  0.00    +0.022 A 
ATOM     23  C   UNL     1     -34.007  -6.243  20.004  0.00  0.00    +0.016 A 
ATOM     24  C   UNL     1     -35.062  -5.240  20.364  0.00  0.00    +0.063 C 
ATOM     25  N   UNL     1     -34.213  -7.118  18.978  0.00  0.00    -0.326 N 
ATOM     26  C   UNL     1     -33.262  -8.019  18.598  0.00  0.00    +0.261 A 
ATOM     27  O   UNL     1     -33.494  -8.782  17.621  0.00  0.00    -0.267 OA
ATOM     28  H   UNL     1     -35.121  -7.095  18.459  0.00  0.00    +0.169 HD
ENDBRANCH  17  20
ENDBRANCH   1  16
TORSDOF 5
ENDMDL
MODEL 7
REMARK VINA RESULT:    -4.354      2.483      5.935
REMARK INTER + INTRA:          -6.776
REMARK INTER:                  -5.115
REMARK INTRA:                  -1.662
REMARK UNBOUND:                -1.149
REMARK  Name = 
REMARK  7 active torsions:
REMARK  status: ('A' for Active; 'I' for Inactive)
REMARK    1  A    between atoms: C_1  and  O_2
REMARK    2  A    between atoms: O_2  and  C_3
REMARK    3  A    between atoms: C_6  and  C_9
REMARK    4  A    between atoms: C_9  and  N_10
REMARK    5  A    between atoms: C_9  and  C_21
REMARK    6  A    between atoms: C_11  and  C_13
REMARK    7  A    between atoms: C_16  and  C_17
REMARK                            x       y       z     vdW  Elec       q    Type
REMARK                         _______ _______ _______ _____ _____    ______ ____
ROOT
ATOM      1  C   UNL     1     -30.726 -12.571  18.831  0.00  0.00    +0.134 C 
ENDROOT
BRANCH   1   5
ATOM      2  C   UNL     1     -30.639 -13.927  14.711  0.00  0.00    +0.120 A 
ATOM      3  C   UNL     1     -30.375 -14.822  15.754  0.00  0.00    +0.046 A 
ATOM      4  C   UNL     1     -30.395 -14.390  17.083  0.00  0.00    +0.009 A 
ATOM      5  C   UNL     1     -30.672 -13.045  17.392  0.00  0.00    -0.023 A 
ATOM      6  C   UNL     1     -30.946 -12.151  16.345  0.00  0.00    +0.009 A 
ATOM      7  C   UNL     1     -30.927 -12.585  15.015  0.00  0.00    +0.046 A 
BRANCH   2   9
ATOM      8  C   UNL     1     -29.420 -14.774  12.700  0.00  0.00    +0.277 C 
ATOM      9  O   UNL     1     -30.608 -14.410  13.394  0.00  0.00    -0.495 OA
ENDBRANCH   2   9
ENDBRANCH   1   5
BRANCH   1  10
ATOM     10  C   UNL     1     -29.413 -12.877  19.524  0.00  0.00    -0.023 A 
ATOM     11  C   UNL     1     -29.418 -13.583  20.740  0.00  0.00    +0.006 A 
ATOM     12  C   UNL     1     -28.217 -13.906  21.377  0.00  0.00    +0.000 A 
ATOM     13  C   UNL     1     -26.998 -13.538  20.803  0.00  0.00    +0.000 A 
ATOM     14  C   UNL     1     -26.978 -12.851  19.587  0.00  0.00    +0.000 A 
ATOM     15  C   UNL     1     -28.177 -12.527  18.945  0.00  0.00    +0.006 A 
ENDBRANCH   1  10
BRANCH   1  16
ATOM     16  N   UNL     1     -31.057 -11.141  18.910  0.00  0.00    -0.300 N 
ATOM     17  C   UNL     1     -32.109 -10.651  19.758  0.00  0.00    +0.250 C 
ATOM     18  O   UNL     1     -32.888 -11.466  20.324  0.00  0.00    -0.270 OA
ATOM     19  H   UNL     1     -30.593 -10.468  18.259  0.00  0.00    +0.150 HD
BRANCH  17  20
ATOM     20  C   UNL     1     -32.314  -9.195  19.956  0.00  0.00    +0.101 A 
ATOM     21  C   UNL     1     -33.598  -8.715  20.251  0.00  0.00    +0.020 A 
ATOM     22  C   UNL     1     -33.816  -7.350  20.434  0.00  0.00    +0.022 A 
ATOM     23  C   UNL     1     -32.743  -6.459  20.319  0.00  0.00    +0.016 A 
ATOM     24  C   UNL     1     -32.958  -4.993  20.550  0.00  0.00    +0.063 C 
ATOM     25  N   UNL     1     -31.491  -6.938  20.068  0.00  0.00    -0.326 N 
ATOM     26  C   UNL     1     -31.251  -8.269  19.890  0.00  0.00    +0.261 A 
ATOM     27  O   UNL     1     -30.069  -8.660  19.694  0.00  0.00    -0.267 OA
ATOM     28  H   UNL     1     -30.687  -6.271  20.020  0.00  0.00    +0.169 HD
ENDBRANCH  17  20
ENDBRANCH   1  16
TORSDOF 5
ENDMDL
MODEL 8
REMARK VINA RESULT:    -3.993      2.201      6.702
REMARK INTER + INTRA:          -6.310
REMARK INTER:                  -4.961
REMARK INTRA:                  -1.349
REMARK UNBOUND:                -1.149
REMARK  Name = 
REMARK  7 active torsions:
REMARK  status: ('A' for Active; 'I' for Inactive)
REMARK    1  A    between atoms: C_1  and  O_2
REMARK    2  A    between atoms: O_2  and  C_3
REMARK    3  A    between atoms: C_6  and  C_9
REMARK    4  A    between atoms: C_9  and  N_10
REMARK    5  A    between atoms: C_9  and  C_21
REMARK    6  A    between atoms: C_11  and  C_13
REMARK    7  A    between atoms: C_16  and  C_17
REMARK                            x       y       z     vdW  Elec       q    Type
REMARK                         _______ _______ _______ _____ _____    ______ ____
ROOT
ATOM      1  C   UNL     1     -30.249 -10.575  18.907  0.00  0.00    +0.134 C 
ENDROOT
BRANCH   1   5
ATOM      2  C   UNL     1     -33.230  -8.457  21.242  0.00  0.00    +0.120 A 
ATOM      3  C   UNL     1     -32.124  -7.775  20.725  0.00  0.00    +0.046 A 
ATOM      4  C   UNL     1     -31.156  -8.452  19.978  0.00  0.00    +0.009 A 
ATOM      5  C   UNL     1     -31.276  -9.834  19.741  0.00  0.00    -0.023 A 
ATOM      6  C   UNL     1     -32.392 -10.516  20.252  0.00  0.00    +0.009 A 
ATOM      7  C   UNL     1     -33.361  -9.836  20.999  0.00  0.00    +0.046 A 
BRANCH   2   9
ATOM      8  C   UNL     1     -35.028  -6.731  21.442  0.00  0.00    +0.277 C 
ATOM      9  O   UNL     1     -34.174  -7.731  21.985  0.00  0.00    -0.495 OA
ENDBRANCH   2   9
ENDBRANCH   1   5
BRANCH   1  10
ATOM     10  C   UNL     1     -29.460 -11.524  19.786  0.00  0.00    -0.023 A 
ATOM     11  C   UNL     1     -29.329 -11.251  21.159  0.00  0.00    +0.006 A 
ATOM     12  C   UNL     1     -28.633 -12.131  21.993  0.00  0.00    +0.000 A 
ATOM     13  C   UNL     1     -28.073 -13.298  21.469  0.00  0.00    +0.000 A 
ATOM     14  C   UNL     1     -28.209 -13.590  20.110  0.00  0.00    +0.000 A 
ATOM     15  C   UNL     1     -28.905 -12.713  19.272  0.00  0.00    +0.006 A 
ENDBRANCH   1  10
BRANCH   1  16
ATOM     16  N   UNL     1     -30.882 -11.279  17.783  0.00  0.00    -0.300 N 
ATOM     17  C   UNL     1     -31.085 -10.648  16.508  0.00  0.00    +0.250 C 
ATOM     18  O   UNL     1     -30.880  -9.410  16.383  0.00  0.00    -0.270 OA
ATOM     19  H   UNL     1     -31.292 -12.229  17.935  0.00  0.00    +0.150 HD
BRANCH  17  20
ATOM     20  C   UNL     1     -31.564 -11.425  15.339  0.00  0.00    +0.101 A 
ATOM     21  C   UNL     1     -32.625 -10.926  14.569  0.00  0.00    +0.020 A 
ATOM     22  C   UNL     1     -33.097 -11.642  13.470  0.00  0.00    +0.022 A 
ATOM     23  C   UNL     1     -32.506 -12.867  13.139  0.00  0.00    +0.016 A 
ATOM     24  C   UNL     1     -32.980 -13.629  11.938  0.00  0.00    +0.063 C 
ATOM     25  N   UNL     1     -31.450 -13.327  13.871  0.00  0.00    -0.326 N 
ATOM     26  C   UNL     1     -30.968 -12.642  14.947  0.00  0.00    +0.261 A 
ATOM     27  O   UNL     1     -29.969 -13.097  15.568  0.00  0.00    -0.267 OA
ATOM     28  H   UNL     1     -30.988 -14.224  13.597  0.00  0.00    +0.169 HD
ENDBRANCH  17  20
ENDBRANCH   1  16
TORSDOF 5
ENDMDL
MODEL 9
REMARK VINA RESULT:    -3.879      2.610      7.004
REMARK INTER + INTRA:          -6.162
REMARK INTER:                  -5.740
REMARK INTRA:                  -0.421
REMARK UNBOUND:                -1.149
REMARK  Name = 
REMARK  7 active torsions:
REMARK  status: ('A' for Active; 'I' for Inactive)
REMARK    1  A    between atoms: C_1  and  O_2
REMARK    2  A    between atoms: O_2  and  C_3
REMARK    3  A    between atoms: C_6  and  C_9
REMARK    4  A    between atoms: C_9  and  N_10
REMARK    5  A    between atoms: C_9  and  C_21
REMARK    6  A    between atoms: C_11  and  C_13
REMARK    7  A    between atoms: C_16  and  C_17
REMARK                            x       y       z     vdW  Elec       q    Type
REMARK                         _______ _______ _______ _____ _____    ______ ____
ROOT
ATOM      1  C   UNL     1     -30.392 -10.327  17.504  0.00  0.00    +0.134 C 
ENDROOT
BRANCH   1   5
ATOM      2  C   UNL     1     -28.278 -13.316  19.833  0.00  0.00    +0.120 A 
ATOM      3  C   UNL     1     -29.671 -13.217  19.910  0.00  0.00    +0.046 A 
ATOM      4  C   UNL     1     -30.358 -12.253  19.167  0.00  0.00    +0.009 A 
ATOM      5  C   UNL     1     -29.656 -11.358  18.337  0.00  0.00    -0.023 A 
ATOM      6  C   UNL     1     -28.259 -11.464  18.254  0.00  0.00    +0.009 A 
ATOM      7  C   UNL     1     -27.573 -12.431  18.997  0.00  0.00    +0.046 A 
BRANCH   2   9
ATOM      8  C   UNL     1     -27.406 -14.209  21.999  0.00  0.00    +0.277 C 
ATOM      9  O   UNL     1     -27.636 -14.301  20.597  0.00  0.00    -0.495 OA
ENDBRANCH   2   9
ENDBRANCH   1   5
BRANCH   1  10
ATOM     10  C   UNL     1     -31.001 -10.989  16.285  0.00  0.00    -0.023 A 
ATOM     11  C   UNL     1     -30.591 -12.284  15.921  0.00  0.00    +0.006 A 
ATOM     12  C   UNL     1     -31.165 -12.926  14.820  0.00  0.00    +0.000 A 
ATOM     13  C   UNL     1     -32.162 -12.289  14.078  0.00  0.00    +0.000 A 
ATOM     14  C   UNL     1     -32.591 -11.009  14.439  0.00  0.00    +0.000 A 
ATOM     15  C   UNL     1     -32.020 -10.363  15.540  0.00  0.00    +0.006 A 
ENDBRANCH   1  10
BRANCH   1  16
ATOM     16  N   UNL     1     -31.406  -9.622  18.300  0.00  0.00    -0.300 N 
ATOM     17  C   UNL     1     -31.052  -8.778  19.408  0.00  0.00    +0.250 C 
ATOM     18  O   UNL     1     -29.863  -8.766  19.829  0.00  0.00    -0.270 OA
ATOM     19  H   UNL     1     -32.420  -9.814  18.129  0.00  0.00    +0.150 HD
BRANCH  17  20
ATOM     20  C   UNL     1     -32.071  -7.942  20.088  0.00  0.00    +0.101 A 
ATOM     21  C   UNL     1     -33.366  -8.448  20.271  0.00  0.00    +0.020 A 
ATOM     22  C   UNL     1     -34.342  -7.677  20.901  0.00  0.00    +0.022 A 
ATOM     23  C   UNL     1     -34.022  -6.391  21.349  0.00  0.00    +0.016 A 
ATOM     24  C   UNL     1     -35.053  -5.566  22.061  0.00  0.00    +0.063 C 
ATOM     25  N   UNL     1     -32.750  -5.921  21.200  0.00  0.00    -0.326 N 
ATOM     26  C   UNL     1     -31.777  -6.657  20.592  0.00  0.00    +0.261 A 
ATOM     27  O   UNL     1     -30.610  -6.186  20.510  0.00  0.00    -0.267 OA
ATOM     28  H   UNL     1     -32.507  -4.973  21.570  0.00  0.00    +0.169 HD
ENDBRANCH  17  20
ENDBRANCH   1  16
TORSDOF 5
ENDMDL
