MODEL 1
REMARK VINA RESULT:    -4.957      0.000      0.000
REMARK INTER + INTRA:          -6.444
REMARK INTER:                  -6.116
REMARK INTRA:                  -0.328
REMARK UNBOUND:                -0.328
REMARK  Name = 
REMARK  4 active torsions:
REMARK  status: ('A' for Active; 'I' for Inactive)
REMARK    1  A    between atoms: C_2  and  C_3
REMARK    2  A    between atoms: N_13  and  C_14
REMARK    3  A    between atoms: C_14  and  C_15
REMARK    4  A    between atoms: C_19  and  N_21
REMARK                            x       y       z     vdW  Elec       q    Type
REMARK                         _______ _______ _______ _____ _____    ______ ____
ROOT
ATOM      1  C   UNL     1     -27.287 -13.112  20.174  0.00  0.00    +0.052 A 
ATOM      2  C   UNL     1     -28.446 -13.630  20.768  0.00  0.00    +0.021 A 
ATOM      3  C   UNL     1     -29.707 -13.213  20.331  0.00  0.00    +0.029 A 
ATOM      4  C   UNL     1     -29.817 -12.275  19.300  0.00  0.00    +0.073 A 
ATOM      5  N   UNL     1     -31.042 -11.866  18.875  0.00  0.00    -0.232 NA
ATOM      6  C   UNL     1     -31.199 -10.953  17.876  0.00  0.00    +0.120 A 
ATOM      7  C   UNL     1     -30.060 -10.415  17.251  0.00  0.00    +0.044 A 
ATOM      8  C   UNL     1     -28.788 -10.814  17.667  0.00  0.00    +0.013 A 
ATOM      9  C   UNL     1     -28.652 -11.750  18.699  0.00  0.00    +0.002 A 
ATOM     10  C   UNL     1     -27.389 -12.172  19.140  0.00  0.00    +0.029 A 
ATOM     11  N   UNL     1     -32.532 -10.573  17.490  0.00  0.00    -0.325 N 
ATOM     12  H   UNL     1     -33.331 -11.081  17.932  0.00  0.00    +0.148 HD
ENDROOT
BRANCH   1  14
ATOM     13  N   UNL     1     -24.950 -13.893  20.992  0.00  0.00    -0.191 NA
ATOM     14  C   UNL     1     -25.991 -13.545  20.628  0.00  0.00    +0.099 C 
ENDBRANCH   1  14
BRANCH  11  15
ATOM     15  C   UNL     1     -32.852  -9.485  16.565  0.00  0.00    +0.138 C 
BRANCH  15  16
ATOM     16  C   UNL     1     -33.471 -10.025  15.302  0.00  0.00    -0.028 A 
ATOM     17  C   UNL     1     -34.496  -9.319  14.652  0.00  0.00    +0.005 A 
ATOM     18  C   UNL     1     -35.062  -9.822  13.480  0.00  0.00    +0.003 A 
ATOM     19  C   UNL     1     -34.608 -11.027  12.940  0.00  0.00    +0.033 A 
ATOM     20  C   UNL     1     -33.574 -11.744  13.566  0.00  0.00    +0.127 A 
ATOM     21  C   UNL     1     -33.007 -11.230  14.749  0.00  0.00    +0.038 A 
BRANCH  20  22
ATOM     22  N   UNL     1     -33.104 -12.983  13.005  0.00  0.00    +0.056 N 
ATOM     23  O   UNL     1     -33.759 -13.562  11.942  0.00  0.00    -0.126 OA
ATOM     24  O   UNL     1     -32.097 -13.555  13.473  0.00  0.00    -0.126 OA
ENDBRANCH  20  22
ENDBRANCH  15  16
ENDBRANCH  11  15
TORSDOF 4
ENDMDL
MODEL 2
REMARK VINA RESULT:    -4.269      4.610      6.328
REMARK INTER + INTRA:          -5.596
REMARK INTER:                  -5.296
REMARK INTRA:                  -0.300
REMARK UNBOUND:                -0.328
REMARK  Name = 
REMARK  4 active torsions:
REMARK  status: ('A' for Active; 'I' for Inactive)
REMARK    1  A    between atoms: C_2  and  C_3
REMARK    2  A    between atoms: N_13  and  C_14
REMARK    3  A    between atoms: C_14  and  C_15
REMARK    4  A    between atoms: C_19  and  N_21
REMARK                            x       y       z     vdW  Elec       q    Type
REMARK                         _______ _______ _______ _____ _____    ______ ____
ROOT
ATOM      1  C   UNL     1     -30.038 -14.092  13.859  0.00  0.00    +0.052 A 
ATOM      2  C   UNL     1     -29.942 -14.631  15.150  0.00  0.00    +0.021 A 
ATOM      3  C   UNL     1     -30.722 -14.113  16.188  0.00  0.00    +0.029 A 
ATOM      4  C   UNL     1     -31.601 -13.054  15.944  0.00  0.00    +0.073 A 
ATOM      5  N   UNL     1     -32.359 -12.547  16.953  0.00  0.00    -0.232 NA
ATOM      6  C   UNL     1     -33.227 -11.514  16.763  0.00  0.00    +0.120 A 
ATOM      7  C   UNL     1     -33.356 -10.952  15.481  0.00  0.00    +0.044 A 
ATOM      8  C   UNL     1     -32.590 -11.449  14.425  0.00  0.00    +0.013 A 
ATOM      9  C   UNL     1     -31.701 -12.508  14.646  0.00  0.00    +0.002 A 
ATOM     10  C   UNL     1     -30.917 -13.031  13.607  0.00  0.00    +0.029 A 
ATOM     11  N   UNL     1     -33.988 -11.037  17.887  0.00  0.00    -0.325 N 
ATOM     12  H   UNL     1     -33.910 -11.561  18.787  0.00  0.00    +0.148 HD
ENDROOT
BRANCH   1  14
ATOM     13  N   UNL     1     -28.586 -15.062  11.938  0.00  0.00    -0.191 NA
ATOM     14  C   UNL     1     -29.233 -14.630  12.794  0.00  0.00    +0.099 C 
ENDBRANCH   1  14
BRANCH  11  15
ATOM     15  C   UNL     1     -34.821  -9.833  17.876  0.00  0.00    +0.138 C 
BRANCH  15  16
ATOM     16  C   UNL     1     -34.080  -8.668  18.478  0.00  0.00    -0.028 A 
ATOM     17  C   UNL     1     -34.683  -7.403  18.555  0.00  0.00    +0.005 A 
ATOM     18  C   UNL     1     -33.993  -6.328  19.118  0.00  0.00    +0.003 A 
ATOM     19  C   UNL     1     -32.702  -6.506  19.619  0.00  0.00    +0.033 A 
ATOM     20  C   UNL     1     -32.084  -7.766  19.564  0.00  0.00    +0.127 A 
ATOM     21  C   UNL     1     -32.785  -8.846  18.994  0.00  0.00    +0.038 A 
BRANCH  20  22
ATOM     22  N   UNL     1     -30.754  -7.948  20.085  0.00  0.00    +0.056 N 
ATOM     23  O   UNL     1     -30.065  -6.888  20.628  0.00  0.00    -0.126 OA
ATOM     24  O   UNL     1     -30.202  -9.067  20.050  0.00  0.00    -0.126 OA
ENDBRANCH  20  22
ENDBRANCH  15  16
ENDBRANCH  11  15
TORSDOF 4
ENDMDL
MODEL 3
REMARK VINA RESULT:    -4.236      3.123      3.728
REMARK INTER + INTRA:          -5.555
REMARK INTER:                  -5.168
REMARK INTRA:                  -0.388
REMARK UNBOUND:                -0.328
REMARK  Name = 
REMARK  4 active torsions:
REMARK  status: ('A' for Active; 'I' for Inactive)
REMARK    1  A    between atoms: C_2  and  C_3
REMARK    2  A    between atoms: N_13  and  C_14
REMARK    3  A    between atoms: C_14  and  C_15
REMARK    4  A    between atoms: C_19  and  N_21
REMARK                            x       y       z     vdW  Elec       q    Type
REMARK                         _______ _______ _______ _____ _____    ______ ____
ROOT
ATOM      1  C   UNL     1     -27.416 -13.379  20.246  0.00  0.00    +0.052 A 
ATOM      2  C   UNL     1     -28.416 -13.326  21.227  0.00  0.00    +0.021 A 
ATOM      3  C   UNL     1     -29.752 -13.140  20.860  0.00  0.00    +0.029 A 
ATOM      4  C   UNL     1     -30.097 -13.005  19.512  0.00  0.00    +0.073 A 
ATOM      5  N   UNL     1     -31.396 -12.822  19.153  0.00  0.00    -0.232 NA
ATOM      6  C   UNL     1     -31.780 -12.683  17.853  0.00  0.00    +0.120 A 
ATOM      7  C   UNL     1     -30.806 -12.737  16.840  0.00  0.00    +0.044 A 
ATOM      8  C   UNL     1     -29.464 -12.922  17.177  0.00  0.00    +0.013 A 
ATOM      9  C   UNL     1     -29.094 -13.058  18.520  0.00  0.00    +0.002 A 
ATOM     10  C   UNL     1     -27.755 -13.245  18.893  0.00  0.00    +0.029 A 
ATOM     11  N   UNL     1     -33.175 -12.489  17.562  0.00  0.00    -0.325 N 
ATOM     12  H   UNL     1     -33.852 -12.552  18.355  0.00  0.00    +0.148 HD
ENDROOT
BRANCH   1  14
ATOM     13  N   UNL     1     -24.938 -13.726  20.937  0.00  0.00    -0.191 NA
ATOM     14  C   UNL     1     -26.042 -13.571  20.629  0.00  0.00    +0.099 C 
ENDBRANCH   1  14
BRANCH  11  15
ATOM     15  C   UNL     1     -33.710 -12.152  16.241  0.00  0.00    +0.138 C 
BRANCH  15  16
ATOM     16  C   UNL     1     -34.056 -10.688  16.165  0.00  0.00    -0.028 A 
ATOM     17  C   UNL     1     -34.312 -10.081  14.926  0.00  0.00    +0.005 A 
ATOM     18  C   UNL     1     -34.638  -8.725  14.862  0.00  0.00    +0.003 A 
ATOM     19  C   UNL     1     -34.719  -7.965  16.030  0.00  0.00    +0.033 A 
ATOM     20  C   UNL     1     -34.479  -8.555  17.282  0.00  0.00    +0.127 A 
ATOM     21  C   UNL     1     -34.151  -9.924  17.340  0.00  0.00    +0.038 A 
BRANCH  20  22
ATOM     22  N   UNL     1     -34.568  -7.771  18.486  0.00  0.00    +0.056 N 
ATOM     23  O   UNL     1     -34.424  -8.364  19.719  0.00  0.00    -0.126 OA
ATOM     24  O   UNL     1     -34.780  -6.541  18.432  0.00  0.00    -0.126 OA
ENDBRANCH  20  22
ENDBRANCH  15  16
ENDBRANCH  11  15
TORSDOF 4
ENDMDL
MODEL 4
REMARK VINA RESULT:    -4.067      4.650      6.731
REMARK INTER + INTRA:          -5.346
REMARK INTER:                  -4.969
REMARK INTRA:                  -0.377
REMARK UNBOUND:                -0.328
REMARK  Name = 
REMARK  4 active torsions:
REMARK  status: ('A' for Active; 'I' for Inactive)
REMARK    1  A    between atoms: C_2  and  C_3
REMARK    2  A    between atoms: N_13  and  C_14
REMARK    3  A    between atoms: C_14  and  C_15
REMARK    4  A    between atoms: C_19  and  N_21
REMARK                            x       y       z     vdW  Elec       q    Type
REMARK                         _______ _______ _______ _____ _____    ______ ____
ROOT
ATOM      1  C   UNL     1     -29.320 -14.256  13.695  0.00  0.00    +0.052 A 
ATOM      2  C   UNL     1     -30.641 -13.997  13.307  0.00  0.00    +0.021 A 
ATOM      3  C   UNL     1     -31.579 -13.563  14.249  0.00  0.00    +0.029 A 
ATOM      4  C   UNL     1     -31.201 -13.385  15.583  0.00  0.00    +0.073 A 
ATOM      5  N   UNL     1     -32.112 -12.964  16.502  0.00  0.00    -0.232 NA
ATOM      6  C   UNL     1     -31.792 -12.779  17.813  0.00  0.00    +0.120 A 
ATOM      7  C   UNL     1     -30.474 -13.022  18.239  0.00  0.00    +0.044 A 
ATOM      8  C   UNL     1     -29.517 -13.456  17.320  0.00  0.00    +0.013 A 
ATOM      9  C   UNL     1     -29.871 -13.643  15.979  0.00  0.00    +0.002 A 
ATOM     10  C   UNL     1     -28.934 -14.079  15.030  0.00  0.00    +0.029 A 
ATOM     11  N   UNL     1     -32.817 -12.335  18.718  0.00  0.00    -0.325 N 
ATOM     12  H   UNL     1     -33.749 -12.086  18.316  0.00  0.00    +0.148 HD
ENDROOT
BRANCH   1  14
ATOM     13  N   UNL     1     -27.586 -15.061  11.938  0.00  0.00    -0.191 NA
ATOM     14  C   UNL     1     -28.358 -14.703  12.721  0.00  0.00    +0.099 C 
ENDBRANCH   1  14
BRANCH  11  15
ATOM     15  C   UNL     1     -32.669 -12.263  20.173  0.00  0.00    +0.138 C 
BRANCH  15  16
ATOM     16  C   UNL     1     -32.919 -10.861  20.664  0.00  0.00    -0.028 A 
ATOM     17  C   UNL     1     -33.932 -10.606  21.602  0.00  0.00    +0.005 A 
ATOM     18  C   UNL     1     -34.156  -9.306  22.058  0.00  0.00    +0.003 A 
ATOM     19  C   UNL     1     -33.369  -8.251  21.592  0.00  0.00    +0.033 A 
ATOM     20  C   UNL     1     -32.341  -8.486  20.663  0.00  0.00    +0.127 A 
ATOM     21  C   UNL     1     -32.120  -9.800  20.207  0.00  0.00    +0.038 A 
BRANCH  20  22
ATOM     22  N   UNL     1     -31.527  -7.398  20.187  0.00  0.00    +0.056 N 
ATOM     23  O   UNL     1     -30.155  -7.487  20.216  0.00  0.00    -0.126 OA
ATOM     24  O   UNL     1     -32.052  -6.355  19.743  0.00  0.00    -0.126 OA
ENDBRANCH  20  22
ENDBRANCH  15  16
ENDBRANCH  11  15
TORSDOF 4
ENDMDL
MODEL 5
REMARK VINA RESULT:    -3.861      3.440      5.275
REMARK INTER + INTRA:          -5.092
REMARK INTER:                  -4.681
REMARK INTRA:                  -0.411
REMARK UNBOUND:                -0.328
REMARK  Name = 
REMARK  4 active torsions:
REMARK  status: ('A' for Active; 'I' for Inactive)
REMARK    1  A    between atoms: C_2  and  C_3
REMARK    2  A    between atoms: N_13  and  C_14
REMARK    3  A    between atoms: C_14  and  C_15
REMARK    4  A    between atoms: C_19  and  N_21
REMARK                            x       y       z     vdW  Elec       q    Type
REMARK                         _______ _______ _______ _____ _____    ______ ____
ROOT
ATOM      1  C   UNL     1     -31.552  -7.451  20.205  0.00  0.00    +0.052 A 
ATOM      2  C   UNL     1     -32.784  -7.670  19.573  0.00  0.00    +0.021 A 
ATOM      3  C   UNL     1     -33.026  -8.872  18.901  0.00  0.00    +0.029 A 
ATOM      4  C   UNL     1     -32.039  -9.861  18.857  0.00  0.00    +0.073 A 
ATOM      5  N   UNL     1     -32.271 -11.030  18.202  0.00  0.00    -0.232 NA
ATOM      6  C   UNL     1     -31.340 -12.022  18.130  0.00  0.00    +0.120 A 
ATOM      7  C   UNL     1     -30.095 -11.842  18.759  0.00  0.00    +0.044 A 
ATOM      8  C   UNL     1     -29.826 -10.652  19.437  0.00  0.00    +0.013 A 
ATOM      9  C   UNL     1     -30.797  -9.646  19.493  0.00  0.00    +0.002 A 
ATOM     10  C   UNL     1     -30.559  -8.438  20.166  0.00  0.00    +0.029 A 
ATOM     11  N   UNL     1     -31.668 -13.226  17.415  0.00  0.00    -0.325 N 
ATOM     12  H   UNL     1     -32.643 -13.329  17.053  0.00  0.00    +0.148 HD
ENDROOT
BRANCH   1  14
ATOM     13  N   UNL     1     -31.113  -5.215  21.451  0.00  0.00    -0.191 NA
ATOM     14  C   UNL     1     -31.309  -6.211  20.896  0.00  0.00    +0.099 C 
ENDBRANCH   1  14
BRANCH  11  15
ATOM     15  C   UNL     1     -30.716 -14.295  17.105  0.00  0.00    +0.138 C 
BRANCH  15  16
ATOM     16  C   UNL     1     -30.390 -14.308  15.635  0.00  0.00    -0.028 A 
ATOM     17  C   UNL     1     -29.193 -14.881  15.176  0.00  0.00    +0.005 A 
ATOM     18  C   UNL     1     -28.899 -14.895  13.812  0.00  0.00    +0.003 A 
ATOM     19  C   UNL     1     -29.796 -14.348  12.893  0.00  0.00    +0.033 A 
ATOM     20  C   UNL     1     -31.006 -13.781  13.328  0.00  0.00    +0.127 A 
ATOM     21  C   UNL     1     -31.296 -13.770  14.707  0.00  0.00    +0.038 A 
BRANCH  20  22
ATOM     22  N   UNL     1     -31.931 -13.221  12.379  0.00  0.00    +0.056 N 
ATOM     23  O   UNL     1     -33.009 -13.954  11.938  0.00  0.00    -0.126 OA
ATOM     24  O   UNL     1     -31.772 -12.064  11.938  0.00  0.00    -0.126 OA
ENDBRANCH  20  22
ENDBRANCH  15  16
ENDBRANCH  11  15
TORSDOF 4
ENDMDL
MODEL 6
REMARK VINA RESULT:    -3.756      2.894      8.128
REMARK INTER + INTRA:          -4.962
REMARK INTER:                  -4.724
REMARK INTRA:                  -0.238
REMARK UNBOUND:                -0.328
REMARK  Name = 
REMARK  4 active torsions:
REMARK  status: ('A' for Active; 'I' for Inactive)
REMARK    1  A    between atoms: C_2  and  C_3
REMARK    2  A    between atoms: N_13  and  C_14
REMARK    3  A    between atoms: C_14  and  C_15
REMARK    4  A    between atoms: C_19  and  N_21
REMARK                            x       y       z     vdW  Elec       q    Type
REMARK                         _______ _______ _______ _____ _____    ______ ____
ROOT
ATOM      1  C   UNL     1     -33.926 -10.814  14.306  0.00  0.00    +0.052 A 
ATOM      2  C   UNL     1     -33.747  -9.564  14.912  0.00  0.00    +0.021 A 
ATOM      3  C   UNL     1     -33.135  -9.470  16.166  0.00  0.00    +0.029 A 
ATOM      4  C   UNL     1     -32.698 -10.626  16.821  0.00  0.00    +0.073 A 
ATOM      5  N   UNL     1     -32.105 -10.537  18.041  0.00  0.00    -0.232 NA
ATOM      6  C   UNL     1     -31.666 -11.634  18.719  0.00  0.00    +0.120 A 
ATOM      7  C   UNL     1     -31.821 -12.907  18.140  0.00  0.00    +0.044 A 
ATOM      8  C   UNL     1     -32.429 -13.030  16.889  0.00  0.00    +0.013 A 
ATOM      9  C   UNL     1     -32.876 -11.888  16.215  0.00  0.00    +0.002 A 
ATOM     10  C   UNL     1     -33.490 -11.977  14.957  0.00  0.00    +0.029 A 
ATOM     11  N   UNL     1     -31.052 -11.452  20.006  0.00  0.00    -0.325 N 
ATOM     12  H   UNL     1     -30.885 -10.473  20.333  0.00  0.00    +0.148 HD
ENDROOT
BRANCH   1  14
ATOM     13  N   UNL     1     -35.062 -10.977  11.978  0.00  0.00    -0.191 NA
ATOM     14  C   UNL     1     -34.556 -10.905  13.015  0.00  0.00    +0.099 C 
ENDBRANCH   1  14
BRANCH  11  15
ATOM     15  C   UNL     1     -30.695 -12.539  20.920  0.00  0.00    +0.138 C 
BRANCH  15  16
ATOM     16  C   UNL     1     -29.251 -12.929  20.745  0.00  0.00    -0.028 A 
ATOM     17  C   UNL     1     -28.731 -14.052  21.408  0.00  0.00    +0.005 A 
ATOM     18  C   UNL     1     -27.393 -14.412  21.237  0.00  0.00    +0.003 A 
ATOM     19  C   UNL     1     -26.565 -13.664  20.398  0.00  0.00    +0.033 A 
ATOM     20  C   UNL     1     -27.067 -12.545  19.714  0.00  0.00    +0.127 A 
ATOM     21  C   UNL     1     -28.418 -12.187  19.891  0.00  0.00    +0.038 A 
BRANCH  20  22
ATOM     22  N   UNL     1     -26.213 -11.778  18.846  0.00  0.00    +0.056 N 
ATOM     23  O   UNL     1     -26.748 -11.013  17.835  0.00  0.00    -0.126 OA
ATOM     24  O   UNL     1     -24.973 -11.795  18.994  0.00  0.00    -0.126 OA
ENDBRANCH  20  22
ENDBRANCH  15  16
ENDBRANCH  11  15
TORSDOF 4
ENDMDL
MODEL 7
REMARK VINA RESULT:    -3.571      4.501      6.723
REMARK INTER + INTRA:          -4.735
REMARK INTER:                  -4.256
REMARK INTRA:                  -0.479
REMARK UNBOUND:                -0.328
REMARK  Name = 
REMARK  4 active torsions:
REMARK  status: ('A' for Active; 'I' for Inactive)
REMARK    1  A    between atoms: C_2  and  C_3
REMARK    2  A    between atoms: N_13  and  C_14
REMARK    3  A    between atoms: C_14  and  C_15
REMARK    4  A    between atoms: C_19  and  N_21
REMARK                            x       y       z     vdW  Elec       q    Type
REMARK                         _______ _______ _______ _____ _____    ______ ____
ROOT
ATOM      1  C   UNL     1     -30.267 -14.236  14.365  0.00  0.00    +0.052 A 
ATOM      2  C   UNL     1     -29.341 -14.540  15.372  0.00  0.00    +0.021 A 
ATOM      3  C   UNL     1     -29.555 -14.098  16.682  0.00  0.00    +0.029 A 
ATOM      4  C   UNL     1     -30.695 -13.350  16.991  0.00  0.00    +0.073 A 
ATOM      5  N   UNL     1     -30.905 -12.917  18.263  0.00  0.00    -0.232 NA
ATOM      6  C   UNL     1     -31.998 -12.183  18.612  0.00  0.00    +0.120 A 
ATOM      7  C   UNL     1     -32.953 -11.864  17.630  0.00  0.00    +0.044 A 
ATOM      8  C   UNL     1     -32.765 -12.292  16.315  0.00  0.00    +0.013 A 
ATOM      9  C   UNL     1     -31.631 -13.041  15.980  0.00  0.00    +0.002 A 
ATOM     10  C   UNL     1     -31.412 -13.487  14.668  0.00  0.00    +0.029 A 
ATOM     11  N   UNL     1     -32.141 -11.763  19.980  0.00  0.00    -0.325 N 
ATOM     12  H   UNL     1     -31.442 -12.114  20.674  0.00  0.00    +0.148 HD
ENDROOT
BRANCH   1  14
ATOM     13  N   UNL     1     -29.860 -15.062  11.938  0.00  0.00    -0.191 NA
ATOM     14  C   UNL     1     -30.041 -14.694  13.019  0.00  0.00    +0.099 C 
ENDBRANCH   1  14
BRANCH  11  15
ATOM     15  C   UNL     1     -33.161 -10.831  20.462  0.00  0.00    +0.138 C 
BRANCH  15  16
ATOM     16  C   UNL     1     -32.607  -9.433  20.550  0.00  0.00    -0.028 A 
ATOM     17  C   UNL     1     -31.451  -9.170  21.302  0.00  0.00    +0.005 A 
ATOM     18  C   UNL     1     -30.939  -7.874  21.375  0.00  0.00    +0.003 A 
ATOM     19  C   UNL     1     -31.567  -6.830  20.693  0.00  0.00    +0.033 A 
ATOM     20  C   UNL     1     -32.717  -7.072  19.923  0.00  0.00    +0.127 A 
ATOM     21  C   UNL     1     -33.229  -8.383  19.854  0.00  0.00    +0.038 A 
BRANCH  20  22
ATOM     22  N   UNL     1     -33.360  -5.996  19.217  0.00  0.00    +0.056 N 
ATOM     23  O   UNL     1     -34.680  -6.096  18.840  0.00  0.00    -0.126 OA
ATOM     24  O   UNL     1     -32.733  -4.954  18.932  0.00  0.00    -0.126 OA
ENDBRANCH  20  22
ENDBRANCH  15  16
ENDBRANCH  11  15
TORSDOF 4
ENDMDL
MODEL 8
REMARK VINA RESULT:    -3.529      4.138      5.328
REMARK INTER + INTRA:          -4.682
REMARK INTER:                  -4.924
REMARK INTRA:                   0.242
REMARK UNBOUND:                -0.328
REMARK  Name = 
REMARK  4 active torsions:
REMARK  status: ('A' for Active; 'I' for Inactive)
REMARK    1  A    between atoms: C_2  and  C_3
REMARK    2  A    between atoms: N_13  and  C_14
REMARK    3  A    between atoms: C_14  and  C_15
REMARK    4  A    between atoms: C_19  and  N_21
REMARK                            x       y       z     vdW  Elec       q    Type
REMARK                         _______ _______ _______ _____ _____    ______ ____
ROOT
ATOM      1  C   UNL     1     -32.381  -8.498  20.167  0.00  0.00    +0.052 A 
ATOM      2  C   UNL     1     -33.493  -9.327  20.369  0.00  0.00    +0.021 A 
ATOM      3  C   UNL     1     -33.929 -10.181  19.352  0.00  0.00    +0.029 A 
ATOM      4  C   UNL     1     -33.256 -10.212  18.127  0.00  0.00    +0.073 A 
ATOM      5  N   UNL     1     -33.680 -11.041  17.135  0.00  0.00    -0.232 NA
ATOM      6  C   UNL     1     -33.059 -11.104  15.924  0.00  0.00    +0.120 A 
ATOM      7  C   UNL     1     -31.935 -10.293  15.686  0.00  0.00    +0.044 A 
ATOM      8  C   UNL     1     -31.477  -9.430  16.684  0.00  0.00    +0.013 A 
ATOM      9  C   UNL     1     -32.136  -9.380  17.918  0.00  0.00    +0.002 A 
ATOM     10  C   UNL     1     -31.702  -8.524  18.942  0.00  0.00    +0.029 A 
ATOM     11  N   UNL     1     -33.574 -12.006  14.930  0.00  0.00    -0.325 N 
ATOM     12  H   UNL     1     -34.353 -12.645  15.207  0.00  0.00    +0.148 HD
ENDROOT
BRANCH   1  14
ATOM     13  N   UNL     1     -31.580  -6.916  22.062  0.00  0.00    -0.191 NA
ATOM     14  C   UNL     1     -31.937  -7.621  21.218  0.00  0.00    +0.099 C 
ENDBRANCH   1  14
BRANCH  11  15
ATOM     15  C   UNL     1     -33.124 -12.054  13.537  0.00  0.00    +0.138 C 
BRANCH  15  16
ATOM     16  C   UNL     1     -32.020 -13.065  13.369  0.00  0.00    -0.028 A 
ATOM     17  C   UNL     1     -31.798 -13.678  12.126  0.00  0.00    +0.005 A 
ATOM     18  C   UNL     1     -30.770 -14.610  11.975  0.00  0.00    +0.003 A 
ATOM     19  C   UNL     1     -29.948 -14.932  13.057  0.00  0.00    +0.033 A 
ATOM     20  C   UNL     1     -30.143 -14.321  14.307  0.00  0.00    +0.127 A 
ATOM     21  C   UNL     1     -31.183 -13.382  14.452  0.00  0.00    +0.038 A 
BRANCH  20  22
ATOM     22  N   UNL     1     -29.292 -14.651  15.420  0.00  0.00    +0.056 N 
ATOM     23  O   UNL     1     -27.924 -14.647  15.279  0.00  0.00    -0.126 OA
ATOM     24  O   UNL     1     -29.780 -14.949  16.530  0.00  0.00    -0.126 OA
ENDBRANCH  20  22
ENDBRANCH  15  16
ENDBRANCH  11  15
TORSDOF 4
ENDMDL
