MODEL 1
REMARK VINA RESULT:    -4.396      0.000      0.000
REMARK INTER + INTRA:          -7.833
REMARK INTER:                  -6.452
REMARK INTRA:                  -1.380
REMARK UNBOUND:                -1.380
REMARK  Name = 
REMARK  9 active torsions:
REMARK  status: ('A' for Active; 'I' for Inactive)
REMARK    1  A    between atoms: C_1  and  C_2
REMARK    2  A    between atoms: C_2  and  C_3
REMARK    3  A    between atoms: C_3  and  O_4
REMARK    4  A    between atoms: O_4  and  C_5
REMARK    5  A    between atoms: C_10  and  O_11
REMARK    6  A    between atoms: O_11  and  C_12
REMARK    7  A    between atoms: C_12  and  C_13
REMARK    8  A    between atoms: N_15  and  C_16
REMARK    9  A    between atoms: C_19  and  C_22
REMARK                            x       y       z     vdW  Elec       q    Type
REMARK                         _______ _______ _______ _____ _____    ______ ____
ROOT
ATOM      1  C   UNL     1     -34.032 -11.107  17.437  0.00  0.00    +0.255 C 
ATOM      2  O   UNL     1     -33.823 -10.208  18.296  0.00  0.00    -0.272 OA
ATOM      3  N   UNL     1     -33.378 -12.383  17.537  0.00  0.00    -0.283 N 
ATOM      4  H   UNL     1     -33.789 -13.180  17.000  0.00  0.00    +0.155 HD
ENDROOT
BRANCH   3   5
ATOM      5  C   UNL     1     -32.276 -12.657  18.418  0.00  0.00    +0.034 A 
ATOM      6  C   UNL     1     -32.232 -12.138  19.724  0.00  0.00    +0.024 A 
ATOM      7  C   UNL     1     -31.137 -12.399  20.554  0.00  0.00    +0.015 A 
ATOM      8  C   UNL     1     -30.056 -13.170  20.090  0.00  0.00    +0.037 A 
ATOM      9  C   UNL     1     -30.100 -13.679  18.779  0.00  0.00    +0.015 A 
ATOM     10  C   UNL     1     -31.194 -13.414  17.950  0.00  0.00    +0.024 A 
BRANCH   8  11
ATOM     11  C   UNL     1     -28.890 -13.463  20.958  0.00  0.00    +0.242 C 
ATOM     12  N   UNL     1     -28.035 -14.582  20.710  0.00  0.00    -0.325 N 
ATOM     13  O   UNL     1     -28.647 -12.720  21.947  0.00  0.00    -0.270 OA
ATOM     14  H   UNL     1     -27.187 -14.730  21.301  0.00  0.00    +0.145 HD
ATOM     15  H   UNL     1     -28.278 -15.316  20.010  0.00  0.00    +0.145 HD
ENDBRANCH   8  11
ENDBRANCH   3   5
BRANCH   1  16
ATOM     16  C   UNL     1     -35.044 -10.874  16.363  0.00  0.00    +0.325 C 
BRANCH  16  17
ATOM     17  O   UNL     1     -34.387 -10.362  15.207  0.00  0.00    -0.479 OA
BRANCH  17  23
ATOM     18  C   UNL     1     -32.499 -11.567  14.314  0.00  0.00    +0.162 A 
ATOM     19  C   UNL     1     -31.919 -12.359  13.303  0.00  0.00    +0.049 A 
ATOM     20  C   UNL     1     -32.668 -12.739  12.188  0.00  0.00    +0.004 A 
ATOM     21  C   UNL     1     -33.997 -12.333  12.065  0.00  0.00    +0.004 A 
ATOM     22  C   UNL     1     -34.582 -11.544  13.057  0.00  0.00    +0.049 A 
ATOM     23  C   UNL     1     -33.836 -11.155  14.188  0.00  0.00    +0.163 A 
BRANCH  18  24
ATOM     24  O   UNL     1     -31.784 -11.157  15.453  0.00  0.00    -0.488 OA
BRANCH  24  25
ATOM     25  C   UNL     1     -30.946 -10.004  15.542  0.00  0.00    +0.229 C 
BRANCH  25  27
ATOM     26  C   UNL     1     -29.398 -10.106  17.530  0.00  0.00    +0.007 C 
ATOM     27  C   UNL     1     -30.738  -9.601  17.005  0.00  0.00    +0.038 C 
ENDBRANCH  25  27
ENDBRANCH  24  25
ENDBRANCH  18  24
ENDBRANCH  17  23
ENDBRANCH  16  17
ENDBRANCH   1  16
TORSDOF 8
ENDMDL
MODEL 2
REMARK VINA RESULT:    -4.047      2.383      7.756
REMARK INTER + INTRA:          -7.320
REMARK INTER:                  -6.257
REMARK INTRA:                  -1.063
REMARK UNBOUND:                -1.380
REMARK  Name = 
REMARK  9 active torsions:
REMARK  status: ('A' for Active; 'I' for Inactive)
REMARK    1  A    between atoms: C_1  and  C_2
REMARK    2  A    between atoms: C_2  and  C_3
REMARK    3  A    between atoms: C_3  and  O_4
REMARK    4  A    between atoms: O_4  and  C_5
REMARK    5  A    between atoms: C_10  and  O_11
REMARK    6  A    between atoms: O_11  and  C_12
REMARK    7  A    between atoms: C_12  and  C_13
REMARK    8  A    between atoms: N_15  and  C_16
REMARK    9  A    between atoms: C_19  and  C_22
REMARK                            x       y       z     vdW  Elec       q    Type
REMARK                         _______ _______ _______ _____ _____    ______ ____
ROOT
ATOM      1  C   UNL     1     -28.957 -11.649  17.447  0.00  0.00    +0.255 C 
ATOM      2  O   UNL     1     -29.249 -12.867  17.298  0.00  0.00    -0.272 OA
ATOM      3  N   UNL     1     -29.847 -10.620  16.984  0.00  0.00    -0.283 N 
ATOM      4  H   UNL     1     -29.722  -9.660  17.378  0.00  0.00    +0.155 HD
ENDROOT
BRANCH   3   5
ATOM      5  C   UNL     1     -30.966 -10.853  16.114  0.00  0.00    +0.034 A 
ATOM      6  C   UNL     1     -31.002 -11.955  15.241  0.00  0.00    +0.024 A 
ATOM      7  C   UNL     1     -32.092 -12.146  14.386  0.00  0.00    +0.015 A 
ATOM      8  C   UNL     1     -33.160 -11.231  14.373  0.00  0.00    +0.037 A 
ATOM      9  C   UNL     1     -33.115 -10.125  15.241  0.00  0.00    +0.015 A 
ATOM     10  C   UNL     1     -32.023  -9.934  16.093  0.00  0.00    +0.024 A 
BRANCH   8  11
ATOM     11  C   UNL     1     -34.327 -11.422  13.478  0.00  0.00    +0.242 C 
ATOM     12  N   UNL     1     -34.638 -12.700  12.916  0.00  0.00    -0.325 N 
ATOM     13  O   UNL     1     -35.060 -10.437  13.191  0.00  0.00    -0.270 OA
ATOM     14  H   UNL     1     -35.500 -12.818  12.338  0.00  0.00    +0.145 HD
ATOM     15  H   UNL     1     -33.982 -13.508  12.988  0.00  0.00    +0.145 HD
ENDBRANCH   8  11
ENDBRANCH   3   5
BRANCH   1  16
ATOM     16  C   UNL     1     -27.719 -11.279  18.198  0.00  0.00    +0.325 C 
BRANCH  16  17
ATOM     17  O   UNL     1     -27.913 -11.558  19.581  0.00  0.00    -0.479 OA
BRANCH  17  23
ATOM     18  C   UNL     1     -28.190 -13.354  21.166  0.00  0.00    +0.162 A 
ATOM     19  C   UNL     1     -27.672 -14.467  21.859  0.00  0.00    +0.049 A 
ATOM     20  C   UNL     1     -26.359 -14.886  21.637  0.00  0.00    +0.004 A 
ATOM     21  C   UNL     1     -25.549 -14.204  20.729  0.00  0.00    +0.004 A 
ATOM     22  C   UNL     1     -26.049 -13.097  20.039  0.00  0.00    +0.049 A 
ATOM     23  C   UNL     1     -27.373 -12.665  20.254  0.00  0.00    +0.163 A 
BRANCH  18  24
ATOM     24  O   UNL     1     -29.504 -12.892  21.358  0.00  0.00    -0.488 OA
BRANCH  24  25
ATOM     25  C   UNL     1     -30.608 -13.131  20.484  0.00  0.00    +0.229 C 
BRANCH  25  27
ATOM     26  C   UNL     1     -32.623 -12.094  19.378  0.00  0.00    +0.007 C 
ATOM     27  C   UNL     1     -31.491 -11.884  20.378  0.00  0.00    +0.038 C 
ENDBRANCH  25  27
ENDBRANCH  24  25
ENDBRANCH  18  24
ENDBRANCH  17  23
ENDBRANCH  16  17
ENDBRANCH   1  16
TORSDOF 8
ENDMDL
MODEL 3
REMARK VINA RESULT:    -3.974      2.042      3.758
REMARK INTER + INTRA:          -7.213
REMARK INTER:                  -6.385
REMARK INTRA:                  -0.828
REMARK UNBOUND:                -1.380
REMARK  Name = 
REMARK  9 active torsions:
REMARK  status: ('A' for Active; 'I' for Inactive)
REMARK    1  A    between atoms: C_1  and  C_2
REMARK    2  A    between atoms: C_2  and  C_3
REMARK    3  A    between atoms: C_3  and  O_4
REMARK    4  A    between atoms: O_4  and  C_5
REMARK    5  A    between atoms: C_10  and  O_11
REMARK    6  A    between atoms: O_11  and  C_12
REMARK    7  A    between atoms: C_12  and  C_13
REMARK    8  A    between atoms: N_15  and  C_16
REMARK    9  A    between atoms: C_19  and  C_22
REMARK                            x       y       z     vdW  Elec       q    Type
REMARK                         _______ _______ _______ _____ _____    ______ ____
ROOT
ATOM      1  C   UNL     1     -31.953 -12.422  17.856  0.00  0.00    +0.255 C 
ATOM      2  O   UNL     1     -31.510 -13.388  17.178  0.00  0.00    -0.272 OA
ATOM      3  N   UNL     1     -31.119 -11.759  18.820  0.00  0.00    -0.283 N 
ATOM      4  H   UNL     1     -31.410 -10.806  19.137  0.00  0.00    +0.155 HD
ENDROOT
BRANCH   3   5
ATOM      5  C   UNL     1     -29.857 -12.268  19.280  0.00  0.00    +0.034 A 
ATOM      6  C   UNL     1     -28.664 -12.016  18.580  0.00  0.00    +0.024 A 
ATOM      7  C   UNL     1     -27.450 -12.544  19.034  0.00  0.00    +0.015 A 
ATOM      8  C   UNL     1     -27.407 -13.348  20.187  0.00  0.00    +0.037 A 
ATOM      9  C   UNL     1     -28.605 -13.606  20.878  0.00  0.00    +0.015 A 
ATOM     10  C   UNL     1     -29.817 -13.080  20.421  0.00  0.00    +0.024 A 
BRANCH   8  11
ATOM     11  C   UNL     1     -26.129 -13.910  20.687  0.00  0.00    +0.242 C 
ATOM     12  N   UNL     1     -26.036 -14.525  21.975  0.00  0.00    -0.325 N 
ATOM     13  O   UNL     1     -25.094 -13.836  19.972  0.00  0.00    -0.270 OA
ATOM     14  H   UNL     1     -25.138 -14.966  22.277  0.00  0.00    +0.145 HD
ATOM     15  H   UNL     1     -26.813 -14.472  22.669  0.00  0.00    +0.145 HD
ENDBRANCH   8  11
ENDBRANCH   3   5
BRANCH   1  16
ATOM     16  C   UNL     1     -33.328 -11.904  17.582  0.00  0.00    +0.325 C 
BRANCH  16  17
ATOM     17  O   UNL     1     -33.512 -11.795  16.173  0.00  0.00    -0.479 OA
BRANCH  17  23
ATOM     18  C   UNL     1     -34.490 -10.805  14.203  0.00  0.00    +0.162 A 
ATOM     19  C   UNL     1     -35.006  -9.682  13.525  0.00  0.00    +0.049 A 
ATOM     20  C   UNL     1     -35.063  -8.439  14.159  0.00  0.00    +0.004 A 
ATOM     21  C   UNL     1     -34.605  -8.299  15.469  0.00  0.00    +0.004 A 
ATOM     22  C   UNL     1     -34.087  -9.402  16.151  0.00  0.00    +0.049 A 
ATOM     23  C   UNL     1     -34.025 -10.662  15.522  0.00  0.00    +0.163 A 
BRANCH  18  24
ATOM     24  O   UNL     1     -34.409 -12.075  13.607  0.00  0.00    -0.488 OA
BRANCH  24  25
ATOM     25  C   UNL     1     -34.179 -12.333  12.221  0.00  0.00    +0.229 C 
BRANCH  25  27
ATOM     26  C   UNL     1     -31.705 -12.561  12.657  0.00  0.00    +0.007 C 
ATOM     27  C   UNL     1     -32.938 -13.211  12.036  0.00  0.00    +0.038 C 
ENDBRANCH  25  27
ENDBRANCH  24  25
ENDBRANCH  18  24
ENDBRANCH  17  23
ENDBRANCH  16  17
ENDBRANCH   1  16
TORSDOF 8
ENDMDL
MODEL 4
REMARK VINA RESULT:    -3.941      2.766      4.762
REMARK INTER + INTRA:          -7.165
REMARK INTER:                  -5.030
REMARK INTRA:                  -2.134
REMARK UNBOUND:                -1.380
REMARK  Name = 
REMARK  9 active torsions:
REMARK  status: ('A' for Active; 'I' for Inactive)
REMARK    1  A    between atoms: C_1  and  C_2
REMARK    2  A    between atoms: C_2  and  C_3
REMARK    3  A    between atoms: C_3  and  O_4
REMARK    4  A    between atoms: O_4  and  C_5
REMARK    5  A    between atoms: C_10  and  O_11
REMARK    6  A    between atoms: O_11  and  C_12
REMARK    7  A    between atoms: C_12  and  C_13
REMARK    8  A    between atoms: N_15  and  C_16
REMARK    9  A    between atoms: C_19  and  C_22
REMARK                            x       y       z     vdW  Elec       q    Type
REMARK                         _______ _______ _______ _____ _____    ______ ____
ROOT
ATOM      1  C   UNL     1     -32.896 -11.346  14.328  0.00  0.00    +0.255 C 
ATOM      2  O   UNL     1     -33.666 -10.374  14.100  0.00  0.00    -0.272 OA
ATOM      3  N   UNL     1     -32.460 -11.636  15.666  0.00  0.00    -0.283 N 
ATOM      4  H   UNL     1     -32.079 -12.591  15.855  0.00  0.00    +0.155 HD
ENDROOT
BRANCH   3   5
ATOM      5  C   UNL     1     -32.627 -10.744  16.781  0.00  0.00    +0.034 A 
ATOM      6  C   UNL     1     -31.642  -9.799  17.119  0.00  0.00    +0.024 A 
ATOM      7  C   UNL     1     -31.817  -8.958  18.223  0.00  0.00    +0.015 A 
ATOM      8  C   UNL     1     -32.971  -9.056  19.021  0.00  0.00    +0.037 A 
ATOM      9  C   UNL     1     -33.948 -10.010  18.685  0.00  0.00    +0.015 A 
ATOM     10  C   UNL     1     -33.770 -10.852  17.583  0.00  0.00    +0.024 A 
BRANCH   8  11
ATOM     11  C   UNL     1     -33.176  -8.169  20.191  0.00  0.00    +0.242 C 
ATOM     12  N   UNL     1     -32.340  -7.032  20.424  0.00  0.00    -0.325 N 
ATOM     13  O   UNL     1     -34.099  -8.422  21.012  0.00  0.00    -0.270 OA
ATOM     14  H   UNL     1     -32.544  -6.391  21.222  0.00  0.00    +0.145 HD
ATOM     15  H   UNL     1     -31.469  -6.867  19.874  0.00  0.00    +0.145 HD
ENDBRANCH   8  11
ENDBRANCH   3   5
BRANCH   1  16
ATOM     16  C   UNL     1     -32.513 -12.258  13.208  0.00  0.00    +0.325 C 
BRANCH  16  17
ATOM     17  O   UNL     1     -32.161 -13.530  13.744  0.00  0.00    -0.479 OA
BRANCH  17  23
ATOM     18  C   UNL     1     -30.257 -14.236  15.045  0.00  0.00    +0.162 A 
ATOM     19  C   UNL     1     -28.945 -14.745  15.118  0.00  0.00    +0.049 A 
ATOM     20  C   UNL     1     -28.246 -15.062  13.952  0.00  0.00    +0.004 A 
ATOM     21  C   UNL     1     -28.841 -14.874  12.705  0.00  0.00    +0.004 A 
ATOM     22  C   UNL     1     -30.139 -14.366  12.618  0.00  0.00    +0.049 A 
ATOM     23  C   UNL     1     -30.855 -14.043  13.788  0.00  0.00    +0.163 A 
BRANCH  18  24
ATOM     24  O   UNL     1     -31.000 -13.899  16.190  0.00  0.00    -0.488 OA
BRANCH  24  25
ATOM     25  C   UNL     1     -30.727 -14.338  17.521  0.00  0.00    +0.229 C 
BRANCH  25  27
ATOM     26  C   UNL     1     -30.990 -12.923  19.592  0.00  0.00    +0.007 C 
ATOM     27  C   UNL     1     -30.139 -13.196  18.355  0.00  0.00    +0.038 C 
ENDBRANCH  25  27
ENDBRANCH  24  25
ENDBRANCH  18  24
ENDBRANCH  17  23
ENDBRANCH  16  17
ENDBRANCH   1  16
TORSDOF 8
ENDMDL
MODEL 5
REMARK VINA RESULT:    -3.919      2.610      7.402
REMARK INTER + INTRA:          -7.133
REMARK INTER:                  -6.459
REMARK INTRA:                  -0.674
REMARK UNBOUND:                -1.380
REMARK  Name = 
REMARK  9 active torsions:
REMARK  status: ('A' for Active; 'I' for Inactive)
REMARK    1  A    between atoms: C_1  and  C_2
REMARK    2  A    between atoms: C_2  and  C_3
REMARK    3  A    between atoms: C_3  and  O_4
REMARK    4  A    between atoms: O_4  and  C_5
REMARK    5  A    between atoms: C_10  and  O_11
REMARK    6  A    between atoms: O_11  and  C_12
REMARK    7  A    between atoms: C_12  and  C_13
REMARK    8  A    between atoms: N_15  and  C_16
REMARK    9  A    between atoms: C_19  and  C_22
REMARK                            x       y       z     vdW  Elec       q    Type
REMARK                         _______ _______ _______ _____ _____    ______ ____
ROOT
ATOM      1  C   UNL     1     -29.674 -13.126  17.420  0.00  0.00    +0.255 C 
ATOM      2  O   UNL     1     -30.571 -13.978  17.665  0.00  0.00    -0.272 OA
ATOM      3  N   UNL     1     -29.862 -12.141  16.391  0.00  0.00    -0.283 N 
ATOM      4  H   UNL     1     -29.250 -11.293  16.416  0.00  0.00    +0.155 HD
ENDROOT
BRANCH   3   5
ATOM      5  C   UNL     1     -30.912 -12.188  15.411  0.00  0.00    +0.034 A 
ATOM      6  C   UNL     1     -32.012 -11.314  15.470  0.00  0.00    +0.024 A 
ATOM      7  C   UNL     1     -33.033 -11.396  14.518  0.00  0.00    +0.015 A 
ATOM      8  C   UNL     1     -32.985 -12.364  13.499  0.00  0.00    +0.037 A 
ATOM      9  C   UNL     1     -31.888 -13.243  13.450  0.00  0.00    +0.015 A 
ATOM     10  C   UNL     1     -30.869 -13.161  14.404  0.00  0.00    +0.024 A 
BRANCH   8  11
ATOM     11  C   UNL     1     -34.056 -12.461  12.477  0.00  0.00    +0.242 C 
ATOM     12  N   UNL     1     -34.830 -11.321  12.094  0.00  0.00    -0.325 N 
ATOM     13  O   UNL     1     -34.304 -13.573  11.938  0.00  0.00    -0.270 OA
ATOM     14  H   UNL     1     -35.537 -11.405  11.330  0.00  0.00    +0.145 HD
ATOM     15  H   UNL     1     -34.780 -10.420  12.617  0.00  0.00    +0.145 HD
ENDBRANCH   8  11
ENDBRANCH   3   5
BRANCH   1  16
ATOM     16  C   UNL     1     -28.449 -13.085  18.273  0.00  0.00    +0.325 C 
BRANCH  16  17
ATOM     17  O   UNL     1     -28.341 -11.796  18.871  0.00  0.00    -0.479 OA
BRANCH  17  23
ATOM     18  C   UNL     1     -29.711 -11.837  20.855  0.00  0.00    +0.162 A 
ATOM     19  C   UNL     1     -30.710 -11.260  21.665  0.00  0.00    +0.049 A 
ATOM     20  C   UNL     1     -31.318 -10.061  21.289  0.00  0.00    +0.004 A 
ATOM     21  C   UNL     1     -30.942  -9.426  20.105  0.00  0.00    +0.004 A 
ATOM     22  C   UNL     1     -29.957  -9.988  19.291  0.00  0.00    +0.049 A 
ATOM     23  C   UNL     1     -29.335 -11.198  19.661  0.00  0.00    +0.163 A 
BRANCH  18  24
ATOM     24  O   UNL     1     -29.072 -13.044  21.189  0.00  0.00    -0.488 OA
BRANCH  24  25
ATOM     25  C   UNL     1     -27.865 -13.168  21.942  0.00  0.00    +0.229 C 
BRANCH  25  27
ATOM     26  C   UNL     1     -25.776 -14.336  21.147  0.00  0.00    +0.007 C 
ATOM     27  C   UNL     1     -27.198 -14.519  21.670  0.00  0.00    +0.038 C 
ENDBRANCH  25  27
ENDBRANCH  24  25
ENDBRANCH  18  24
ENDBRANCH  17  23
ENDBRANCH  16  17
ENDBRANCH   1  16
TORSDOF 8
ENDMDL
MODEL 6
REMARK VINA RESULT:    -3.880      2.827      3.957
REMARK INTER + INTRA:          -7.074
REMARK INTER:                  -5.086
REMARK INTRA:                  -1.988
REMARK UNBOUND:                -1.380
REMARK  Name = 
REMARK  9 active torsions:
REMARK  status: ('A' for Active; 'I' for Inactive)
REMARK    1  A    between atoms: C_1  and  C_2
REMARK    2  A    between atoms: C_2  and  C_3
REMARK    3  A    between atoms: C_3  and  O_4
REMARK    4  A    between atoms: O_4  and  C_5
REMARK    5  A    between atoms: C_10  and  O_11
REMARK    6  A    between atoms: O_11  and  C_12
REMARK    7  A    between atoms: C_12  and  C_13
REMARK    8  A    between atoms: N_15  and  C_16
REMARK    9  A    between atoms: C_19  and  C_22
REMARK                            x       y       z     vdW  Elec       q    Type
REMARK                         _______ _______ _______ _____ _____    ______ ____
ROOT
ATOM      1  C   UNL     1     -34.322  -9.037  15.515  0.00  0.00    +0.255 C 
ATOM      2  O   UNL     1     -34.356  -7.777  15.494  0.00  0.00    -0.272 OA
ATOM      3  N   UNL     1     -33.928  -9.739  16.705  0.00  0.00    -0.283 N 
ATOM      4  H   UNL     1     -34.191 -10.748  16.781  0.00  0.00    +0.155 HD
ENDROOT
BRANCH   3   5
ATOM      5  C   UNL     1     -33.309  -9.116  17.842  0.00  0.00    +0.034 A 
ATOM      6  C   UNL     1     -34.071  -8.475  18.835  0.00  0.00    +0.024 A 
ATOM      7  C   UNL     1     -33.443  -7.853  19.919  0.00  0.00    +0.015 A 
ATOM      8  C   UNL     1     -32.040  -7.844  20.024  0.00  0.00    +0.037 A 
ATOM      9  C   UNL     1     -31.282  -8.478  19.023  0.00  0.00    +0.015 A 
ATOM     10  C   UNL     1     -31.911  -9.096  17.939  0.00  0.00    +0.024 A 
BRANCH   8  11
ATOM     11  C   UNL     1     -31.357  -7.196  21.170  0.00  0.00    +0.242 C 
ATOM     12  N   UNL     1     -29.971  -7.422  21.440  0.00  0.00    -0.325 N 
ATOM     13  O   UNL     1     -32.010  -6.439  21.937  0.00  0.00    -0.270 OA
ATOM     14  H   UNL     1     -29.502  -6.906  22.217  0.00  0.00    +0.145 HD
ATOM     15  H   UNL     1     -29.425  -8.157  20.940  0.00  0.00    +0.145 HD
ENDBRANCH   8  11
ENDBRANCH   3   5
BRANCH   1  16
ATOM     16  C   UNL     1     -34.789  -9.804  14.321  0.00  0.00    +0.325 C 
BRANCH  16  17
ATOM     17  O   UNL     1     -34.603 -11.196  14.559  0.00  0.00    -0.479 OA
BRANCH  17  23
ATOM     18  C   UNL     1     -32.534 -12.433  14.633  0.00  0.00    +0.162 A 
ATOM     19  C   UNL     1     -31.563 -13.234  13.999  0.00  0.00    +0.049 A 
ATOM     20  C   UNL     1     -31.714 -13.598  12.660  0.00  0.00    +0.004 A 
ATOM     21  C   UNL     1     -32.828 -13.167  11.938  0.00  0.00    +0.004 A 
ATOM     22  C   UNL     1     -33.795 -12.370  12.553  0.00  0.00    +0.049 A 
ATOM     23  C   UNL     1     -33.653 -11.997  13.905  0.00  0.00    +0.163 A 
BRANCH  18  24
ATOM     24  O   UNL     1     -32.425 -12.039  15.978  0.00  0.00    -0.488 OA
BRANCH  24  25
ATOM     25  C   UNL     1     -32.505 -12.905  17.111  0.00  0.00    +0.229 C 
BRANCH  25  27
ATOM     26  C   UNL     1     -31.425 -12.713  19.382  0.00  0.00    +0.007 C 
ATOM     27  C   UNL     1     -31.184 -12.899  17.887  0.00  0.00    +0.038 C 
ENDBRANCH  25  27
ENDBRANCH  24  25
ENDBRANCH  18  24
ENDBRANCH  17  23
ENDBRANCH  16  17
ENDBRANCH   1  16
TORSDOF 8
ENDMDL
MODEL 7
REMARK VINA RESULT:    -2.584      2.170      3.348
REMARK INTER + INTRA:          -5.173
REMARK INTER:                  -3.170
REMARK INTRA:                  -2.003
REMARK UNBOUND:                -1.380
REMARK  Name = 
REMARK  9 active torsions:
REMARK  status: ('A' for Active; 'I' for Inactive)
REMARK    1  A    between atoms: C_1  and  C_2
REMARK    2  A    between atoms: C_2  and  C_3
REMARK    3  A    between atoms: C_3  and  O_4
REMARK    4  A    between atoms: O_4  and  C_5
REMARK    5  A    between atoms: C_10  and  O_11
REMARK    6  A    between atoms: O_11  and  C_12
REMARK    7  A    between atoms: C_12  and  C_13
REMARK    8  A    between atoms: N_15  and  C_16
REMARK    9  A    between atoms: C_19  and  C_22
REMARK                            x       y       z     vdW  Elec       q    Type
REMARK                         _______ _______ _______ _____ _____    ______ ____
ROOT
ATOM      1  C   UNL     1     -30.619  -9.753  18.870  0.00  0.00    +0.255 C 
ATOM      2  O   UNL     1     -29.775  -9.061  19.503  0.00  0.00    -0.272 OA
ATOM      3  N   UNL     1     -30.575 -11.188  18.920  0.00  0.00    -0.283 N 
ATOM      4  H   UNL     1     -31.437 -11.709  18.640  0.00  0.00    +0.155 HD
ENDROOT
BRANCH   3   5
ATOM      5  C   UNL     1     -29.469 -11.943  19.441  0.00  0.00    +0.034 A 
ATOM      6  C   UNL     1     -29.629 -12.833  20.517  0.00  0.00    +0.024 A 
ATOM      7  C   UNL     1     -28.533 -13.539  21.024  0.00  0.00    +0.015 A 
ATOM      8  C   UNL     1     -27.250 -13.356  20.475  0.00  0.00    +0.037 A 
ATOM      9  C   UNL     1     -27.093 -12.457  19.406  0.00  0.00    +0.015 A 
ATOM     10  C   UNL     1     -28.190 -11.750  18.903  0.00  0.00    +0.024 A 
BRANCH   8  11
ATOM     11  C   UNL     1     -26.077 -14.100  20.994  0.00  0.00    +0.242 C 
ATOM     12  N   UNL     1     -26.202 -15.043  22.063  0.00  0.00    -0.325 N 
ATOM     13  O   UNL     1     -24.938 -13.893  20.497  0.00  0.00    -0.270 OA
ATOM     14  H   UNL     1     -25.370 -15.597  22.367  0.00  0.00    +0.145 HD
ATOM     15  H   UNL     1     -27.082 -15.136  22.615  0.00  0.00    +0.145 HD
ENDBRANCH   8  11
ENDBRANCH   3   5
BRANCH   1  16
ATOM     16  C   UNL     1     -31.731  -9.069  18.144  0.00  0.00    +0.325 C 
BRANCH  16  17
ATOM     17  O   UNL     1     -32.754 -10.018  17.859  0.00  0.00    -0.479 OA
BRANCH  17  23
ATOM     18  C   UNL     1     -32.779 -11.661  16.093  0.00  0.00    +0.162 A 
ATOM     19  C   UNL     1     -33.165 -12.061  14.798  0.00  0.00    +0.049 A 
ATOM     20  C   UNL     1     -33.921 -11.207  13.993  0.00  0.00    +0.004 A 
ATOM     21  C   UNL     1     -34.298  -9.950  14.464  0.00  0.00    +0.004 A 
ATOM     22  C   UNL     1     -33.919  -9.540  15.744  0.00  0.00    +0.049 A 
ATOM     23  C   UNL     1     -33.156 -10.393  16.567  0.00  0.00    +0.163 A 
BRANCH  18  24
ATOM     24  O   UNL     1     -32.015 -12.484  16.940  0.00  0.00    -0.488 OA
BRANCH  24  25
ATOM     25  C   UNL     1     -32.063 -13.910  16.982  0.00  0.00    +0.229 C 
BRANCH  25  27
ATOM     26  C   UNL     1     -29.743 -13.906  15.993  0.00  0.00    +0.007 C 
ATOM     27  C   UNL     1     -30.649 -14.493  17.071  0.00  0.00    +0.038 C 
ENDBRANCH  25  27
ENDBRANCH  24  25
ENDBRANCH  18  24
ENDBRANCH  17  23
ENDBRANCH  16  17
ENDBRANCH   1  16
TORSDOF 8
ENDMDL
