MODEL 1
REMARK VINA RESULT:    -4.936      0.000      0.000
REMARK INTER + INTRA:          -8.400
REMARK INTER:                  -6.811
REMARK INTRA:                  -1.589
REMARK UNBOUND:                -1.589
REMARK  Name = 
REMARK  9 active torsions:
REMARK  status: ('A' for Active; 'I' for Inactive)
REMARK    1  A    between atoms: C_1  and  C_2
REMARK    2  A    between atoms: C_2  and  C_3
REMARK    3  A    between atoms: C_9  and  C_11
REMARK    4  A    between atoms: N_13  and  C_14
REMARK    5  A    between atoms: C_14  and  C_15
REMARK    6  A    between atoms: C_14  and  C_21
REMARK    7  A    between atoms: C_21  and  C_22
REMARK    8  A    between atoms: C_21  and  C_23
REMARK    9  A    between atoms: C_23  and  O_25
REMARK                            x       y       z     vdW  Elec       q    Type
REMARK                         _______ _______ _______ _____ _____    ______ ____
ROOT
ATOM      1  C   UNL     1     -30.404 -10.148  17.081  0.00  0.00    +0.218 C 
ATOM      2  O   UNL     1     -30.073  -9.173  16.352  0.00  0.00    -0.275 OA
ATOM      3  N   UNL     1     -31.268 -11.171  16.565  0.00  0.00    -0.307 N 
ATOM      4  H   UNL     1     -31.487 -11.994  17.173  0.00  0.00    +0.149 HD
ENDROOT
BRANCH   1  11
ATOM      5  C   UNL     1     -28.291 -12.801  20.733  0.00  0.00    +0.215 C 
ATOM      6  O   UNL     1     -28.435 -13.349  21.861  0.00  0.00    -0.276 OA
ATOM      7  N   UNL     1     -29.231 -11.794  20.300  0.00  0.00    -0.301 N 
ATOM      8  C   UNL     1     -30.055 -11.102  21.302  0.00  0.00    +0.108 C 
ATOM      9  C   UNL     1     -30.274  -9.639  20.901  0.00  0.00    +0.020 C 
ATOM     10  C   UNL     1     -30.813  -9.538  19.471  0.00  0.00    +0.016 C 
ATOM     11  C   UNL     1     -29.868 -10.245  18.487  0.00  0.00    +0.092 C 
ATOM     12  C   UNL     1     -29.662 -11.712  18.895  0.00  0.00    +0.120 C 
BRANCH   5  14
ATOM     13  C   UNL     1     -26.071 -13.946  20.714  0.00  0.00    +0.013 C 
ATOM     14  C   UNL     1     -27.122 -13.217  19.883  0.00  0.00    +0.092 C 
ENDBRANCH   5  14
ENDBRANCH   1  11
BRANCH   3  15
ATOM     15  C   UNL     1     -31.720 -11.174  15.170  0.00  0.00    +0.117 C 
BRANCH  15  16
ATOM     16  C   UNL     1     -31.259 -12.455  14.499  0.00  0.00    -0.026 A 
ATOM     17  C   UNL     1     -30.448 -13.366  15.198  0.00  0.00    +0.005 A 
ATOM     18  C   UNL     1     -30.011 -14.542  14.578  0.00  0.00    +0.000 A 
ATOM     19  C   UNL     1     -30.377 -14.815  13.258  0.00  0.00    +0.000 A 
ATOM     20  C   UNL     1     -31.179 -13.914  12.553  0.00  0.00    +0.000 A 
ATOM     21  C   UNL     1     -31.618 -12.738  13.168  0.00  0.00    +0.005 A 
ENDBRANCH  15  16
BRANCH  15  22
ATOM     22  C   UNL     1     -33.264 -11.018  15.088  0.00  0.00    +0.119 C 
ATOM     23  C   UNL     1     -33.971 -11.828  16.184  0.00  0.00    +0.021 C 
BRANCH  22  24
ATOM     24  C   UNL     1     -33.672  -9.571  15.193  0.00  0.00    +0.310 C 
ATOM     25  O   UNL     1     -34.609  -9.119  14.482  0.00  0.00    -0.251 OA
BRANCH  24  26
ATOM     26  O   UNL     1     -33.016  -8.733  16.089  0.00  0.00    -0.480 OA
ATOM     27  H   UNL     1     -33.535  -8.075  16.660  0.00  0.00    +0.295 HD
ENDBRANCH  24  26
ENDBRANCH  22  24
ENDBRANCH  15  22
ENDBRANCH   3  15
TORSDOF 7
ENDMDL
MODEL 2
REMARK VINA RESULT:    -4.922      2.708      7.451
REMARK INTER + INTRA:          -8.381
REMARK INTER:                  -7.138
REMARK INTRA:                  -1.243
REMARK UNBOUND:                -1.589
REMARK  Name = 
REMARK  9 active torsions:
REMARK  status: ('A' for Active; 'I' for Inactive)
REMARK    1  A    between atoms: C_1  and  C_2
REMARK    2  A    between atoms: C_2  and  C_3
REMARK    3  A    between atoms: C_9  and  C_11
REMARK    4  A    between atoms: N_13  and  C_14
REMARK    5  A    between atoms: C_14  and  C_15
REMARK    6  A    between atoms: C_14  and  C_21
REMARK    7  A    between atoms: C_21  and  C_22
REMARK    8  A    between atoms: C_21  and  C_23
REMARK    9  A    between atoms: C_23  and  O_25
REMARK                            x       y       z     vdW  Elec       q    Type
REMARK                         _______ _______ _______ _____ _____    ______ ____
ROOT
ATOM      1  C   UNL     1     -30.198 -13.793  17.588  0.00  0.00    +0.218 C 
ATOM      2  O   UNL     1     -30.943 -14.694  18.063  0.00  0.00    -0.275 OA
ATOM      3  N   UNL     1     -29.488 -12.909  18.468  0.00  0.00    -0.307 N 
ATOM      4  H   UNL     1     -28.840 -12.203  18.050  0.00  0.00    +0.149 HD
ENDROOT
BRANCH   1  11
ATOM      5  C   UNL     1     -32.201 -13.275  13.054  0.00  0.00    +0.215 C 
ATOM      6  O   UNL     1     -32.442 -13.812  11.938  0.00  0.00    -0.276 OA
ATOM      7  N   UNL     1     -31.198 -13.845  13.921  0.00  0.00    -0.301 N 
ATOM      8  C   UNL     1     -30.177 -14.737  13.351  0.00  0.00    +0.108 C 
ATOM      9  C   UNL     1     -28.833 -14.541  14.061  0.00  0.00    +0.020 C 
ATOM     10  C   UNL     1     -28.992 -14.665  15.579  0.00  0.00    +0.016 C 
ATOM     11  C   UNL     1     -30.040 -13.666  16.095  0.00  0.00    +0.092 C 
ATOM     12  C   UNL     1     -31.385 -13.878  15.381  0.00  0.00    +0.120 C 
BRANCH   5  14
ATOM     13  C   UNL     1     -34.216 -11.882  12.565  0.00  0.00    +0.013 C 
ATOM     14  C   UNL     1     -32.971 -12.040  13.432  0.00  0.00    +0.092 C 
ENDBRANCH   5  14
ENDBRANCH   1  11
BRANCH   3  15
ATOM     15  C   UNL     1     -29.525 -13.069  19.926  0.00  0.00    +0.117 C 
BRANCH  15  16
ATOM     16  C   UNL     1     -28.149 -13.479  20.417  0.00  0.00    -0.026 A 
ATOM     17  C   UNL     1     -28.016 -14.257  21.581  0.00  0.00    +0.005 A 
ATOM     18  C   UNL     1     -26.748 -14.626  22.042  0.00  0.00    +0.000 A 
ATOM     19  C   UNL     1     -25.605 -14.220  21.349  0.00  0.00    +0.000 A 
ATOM     20  C   UNL     1     -25.726 -13.443  20.195  0.00  0.00    +0.000 A 
ATOM     21  C   UNL     1     -26.991 -13.071  19.729  0.00  0.00    +0.005 A 
ENDBRANCH  15  16
BRANCH  15  22
ATOM     22  C   UNL     1     -30.005 -11.762  20.614  0.00  0.00    +0.119 C 
ATOM     23  C   UNL     1     -29.709 -10.528  19.750  0.00  0.00    +0.021 C 
BRANCH  22  24
ATOM     24  C   UNL     1     -31.480 -11.817  20.919  0.00  0.00    +0.310 C 
ATOM     25  O   UNL     1     -31.970 -11.103  21.836  0.00  0.00    -0.251 OA
BRANCH  24  26
ATOM     26  O   UNL     1     -32.308 -12.653  20.177  0.00  0.00    -0.480 OA
ATOM     27  H   UNL     1     -32.892 -12.281  19.437  0.00  0.00    +0.295 HD
ENDBRANCH  24  26
ENDBRANCH  22  24
ENDBRANCH  15  22
ENDBRANCH   3  15
TORSDOF 7
ENDMDL
MODEL 3
REMARK VINA RESULT:    -4.722      2.373      5.825
REMARK INTER + INTRA:          -8.105
REMARK INTER:                  -6.647
REMARK INTRA:                  -1.458
REMARK UNBOUND:                -1.589
REMARK  Name = 
REMARK  9 active torsions:
REMARK  status: ('A' for Active; 'I' for Inactive)
REMARK    1  A    between atoms: C_1  and  C_2
REMARK    2  A    between atoms: C_2  and  C_3
REMARK    3  A    between atoms: C_9  and  C_11
REMARK    4  A    between atoms: N_13  and  C_14
REMARK    5  A    between atoms: C_14  and  C_15
REMARK    6  A    between atoms: C_14  and  C_21
REMARK    7  A    between atoms: C_21  and  C_22
REMARK    8  A    between atoms: C_21  and  C_23
REMARK    9  A    between atoms: C_23  and  O_25
REMARK                            x       y       z     vdW  Elec       q    Type
REMARK                         _______ _______ _______ _____ _____    ______ ____
ROOT
ATOM      1  C   UNL     1     -31.655 -12.387  19.337  0.00  0.00    +0.218 C 
ATOM      2  O   UNL     1     -31.282 -13.212  20.216  0.00  0.00    -0.275 OA
ATOM      3  N   UNL     1     -30.983 -12.335  18.070  0.00  0.00    -0.307 N 
ATOM      4  H   UNL     1     -31.343 -11.677  17.341  0.00  0.00    +0.149 HD
ENDROOT
BRANCH   1  11
ATOM      5  C   UNL     1     -34.680  -8.682  17.940  0.00  0.00    +0.215 C 
ATOM      6  O   UNL     1     -35.040  -7.485  18.121  0.00  0.00    -0.276 OA
ATOM      7  N   UNL     1     -33.936  -9.369  18.968  0.00  0.00    -0.301 N 
ATOM      8  C   UNL     1     -33.982  -8.864  20.349  0.00  0.00    +0.108 C 
ATOM      9  C   UNL     1     -33.945 -10.026  21.348  0.00  0.00    +0.020 C 
ATOM     10  C   UNL     1     -32.764 -10.957  21.063  0.00  0.00    +0.016 C 
ATOM     11  C   UNL     1     -32.821 -11.474  19.617  0.00  0.00    +0.092 C 
ATOM     12  C   UNL     1     -32.849 -10.301  18.624  0.00  0.00    +0.120 C 
BRANCH   5  14
ATOM     13  C   UNL     1     -34.377  -8.686  15.461  0.00  0.00    +0.013 C 
ATOM     14  C   UNL     1     -35.061  -9.353  16.650  0.00  0.00    +0.092 C 
ENDBRANCH   5  14
ENDBRANCH   1  11
BRANCH   3  15
ATOM     15  C   UNL     1     -29.919 -13.279  17.715  0.00  0.00    +0.117 C 
BRANCH  15  16
ATOM     16  C   UNL     1     -30.049 -13.650  16.250  0.00  0.00    -0.026 A 
ATOM     17  C   UNL     1     -29.036 -14.391  15.615  0.00  0.00    +0.005 A 
ATOM     18  C   UNL     1     -29.148 -14.724  14.261  0.00  0.00    +0.000 A 
ATOM     19  C   UNL     1     -30.267 -14.319  13.531  0.00  0.00    +0.000 A 
ATOM     20  C   UNL     1     -31.277 -13.579  14.150  0.00  0.00    +0.000 A 
ATOM     21  C   UNL     1     -31.170 -13.243  15.503  0.00  0.00    +0.005 A 
ENDBRANCH  15  16
BRANCH  15  22
ATOM     22  C   UNL     1     -28.520 -12.678  18.024  0.00  0.00    +0.119 C 
ATOM     23  C   UNL     1     -28.598 -11.163  18.264  0.00  0.00    +0.021 C 
BRANCH  22  24
ATOM     24  C   UNL     1     -27.893 -13.343  19.223  0.00  0.00    +0.310 C 
ATOM     25  O   UNL     1     -26.700 -13.092  19.540  0.00  0.00    -0.251 OA
BRANCH  24  26
ATOM     26  O   UNL     1     -28.642 -14.230  19.990  0.00  0.00    -0.480 OA
ATOM     27  H   UNL     1     -28.442 -15.224  19.976  0.00  0.00    +0.295 HD
ENDBRANCH  24  26
ENDBRANCH  22  24
ENDBRANCH  15  22
ENDBRANCH   3  15
TORSDOF 7
ENDMDL
MODEL 4
REMARK VINA RESULT:    -4.258      2.801      6.207
REMARK INTER + INTRA:          -7.465
REMARK INTER:                  -6.142
REMARK INTRA:                  -1.322
REMARK UNBOUND:                -1.589
REMARK  Name = 
REMARK  9 active torsions:
REMARK  status: ('A' for Active; 'I' for Inactive)
REMARK    1  A    between atoms: C_1  and  C_2
REMARK    2  A    between atoms: C_2  and  C_3
REMARK    3  A    between atoms: C_9  and  C_11
REMARK    4  A    between atoms: N_13  and  C_14
REMARK    5  A    between atoms: C_14  and  C_15
REMARK    6  A    between atoms: C_14  and  C_21
REMARK    7  A    between atoms: C_21  and  C_22
REMARK    8  A    between atoms: C_21  and  C_23
REMARK    9  A    between atoms: C_23  and  O_25
REMARK                            x       y       z     vdW  Elec       q    Type
REMARK                         _______ _______ _______ _____ _____    ______ ____
ROOT
ATOM      1  C   UNL     1     -30.553 -10.362  16.886  0.00  0.00    +0.218 C 
ATOM      2  O   UNL     1     -29.365  -9.954  17.008  0.00  0.00    -0.275 OA
ATOM      3  N   UNL     1     -30.826 -11.768  16.801  0.00  0.00    -0.307 N 
ATOM      4  H   UNL     1     -31.822 -12.081  16.750  0.00  0.00    +0.149 HD
ENDROOT
BRANCH   1  11
ATOM      5  C   UNL     1     -33.614  -7.213  19.242  0.00  0.00    +0.215 C 
ATOM      6  O   UNL     1     -34.793  -6.971  19.623  0.00  0.00    -0.276 OA
ATOM      7  N   UNL     1     -33.382  -8.197  18.212  0.00  0.00    -0.301 N 
ATOM      8  C   UNL     1     -34.487  -8.577  17.319  0.00  0.00    +0.108 C 
ATOM      9  C   UNL     1     -33.964  -8.857  15.906  0.00  0.00    +0.020 C 
ATOM     10  C   UNL     1     -32.812  -9.864  15.937  0.00  0.00    +0.016 C 
ATOM     11  C   UNL     1     -31.684  -9.366  16.854  0.00  0.00    +0.092 C 
ATOM     12  C   UNL     1     -32.218  -9.096  18.269  0.00  0.00    +0.120 C 
BRANCH   5  14
ATOM     13  C   UNL     1     -32.533  -4.973  19.474  0.00  0.00    +0.013 C 
ATOM     14  C   UNL     1     -32.488  -6.444  19.876  0.00  0.00    +0.092 C 
ENDBRANCH   5  14
ENDBRANCH   1  11
BRANCH   3  15
ATOM     15  C   UNL     1     -29.768 -12.774  16.942  0.00  0.00    +0.117 C 
BRANCH  15  16
ATOM     16  C   UNL     1     -29.411 -12.920  18.409  0.00  0.00    -0.026 A 
ATOM     17  C   UNL     1     -28.065 -12.898  18.815  0.00  0.00    +0.005 A 
ATOM     18  C   UNL     1     -27.733 -13.044  20.166  0.00  0.00    +0.000 A 
ATOM     19  C   UNL     1     -28.738 -13.216  21.120  0.00  0.00    +0.000 A 
ATOM     20  C   UNL     1     -30.078 -13.244  20.727  0.00  0.00    +0.000 A 
ATOM     21  C   UNL     1     -30.416 -13.099  19.379  0.00  0.00    +0.005 A 
ENDBRANCH  15  16
BRANCH  15  22
ATOM     22  C   UNL     1     -30.211 -14.132  16.330  0.00  0.00    +0.119 C 
ATOM     23  C   UNL     1     -31.578 -14.020  15.639  0.00  0.00    +0.021 C 
BRANCH  22  24
ATOM     24  C   UNL     1     -29.192 -14.644  15.345  0.00  0.00    +0.310 C 
ATOM     25  O   UNL     1     -29.547 -15.010  14.192  0.00  0.00    -0.251 OA
BRANCH  24  26
ATOM     26  O   UNL     1     -27.850 -14.703  15.707  0.00  0.00    -0.480 OA
ATOM     27  H   UNL     1     -27.120 -14.548  15.022  0.00  0.00    +0.295 HD
ENDBRANCH  24  26
ENDBRANCH  22  24
ENDBRANCH  15  22
ENDBRANCH   3  15
TORSDOF 7
ENDMDL
MODEL 5
REMARK VINA RESULT:    -4.149      2.592      5.898
REMARK INTER + INTRA:          -7.314
REMARK INTER:                  -5.916
REMARK INTRA:                  -1.398
REMARK UNBOUND:                -1.589
REMARK  Name = 
REMARK  9 active torsions:
REMARK  status: ('A' for Active; 'I' for Inactive)
REMARK    1  A    between atoms: C_1  and  C_2
REMARK    2  A    between atoms: C_2  and  C_3
REMARK    3  A    between atoms: C_9  and  C_11
REMARK    4  A    between atoms: N_13  and  C_14
REMARK    5  A    between atoms: C_14  and  C_15
REMARK    6  A    between atoms: C_14  and  C_21
REMARK    7  A    between atoms: C_21  and  C_22
REMARK    8  A    between atoms: C_21  and  C_23
REMARK    9  A    between atoms: C_23  and  O_25
REMARK                            x       y       z     vdW  Elec       q    Type
REMARK                         _______ _______ _______ _____ _____    ______ ____
ROOT
ATOM      1  C   UNL     1     -32.222 -11.207  17.391  0.00  0.00    +0.218 C 
ATOM      2  O   UNL     1     -32.851 -11.946  18.197  0.00  0.00    -0.275 OA
ATOM      3  N   UNL     1     -31.025 -11.687  16.759  0.00  0.00    -0.307 N 
ATOM      4  H   UNL     1     -30.550 -11.074  16.058  0.00  0.00    +0.149 HD
ENDROOT
BRANCH   1  11
ATOM      5  C   UNL     1     -34.051  -6.825  18.904  0.00  0.00    +0.215 C 
ATOM      6  O   UNL     1     -35.054  -6.061  18.959  0.00  0.00    -0.276 OA
ATOM      7  N   UNL     1     -34.029  -7.911  17.953  0.00  0.00    -0.301 N 
ATOM      8  C   UNL     1     -34.925  -7.864  16.788  0.00  0.00    +0.108 C 
ATOM      9  C   UNL     1     -34.245  -8.483  15.562  0.00  0.00    +0.020 C 
ATOM     10  C   UNL     1     -33.708  -9.880  15.880  0.00  0.00    +0.016 C 
ATOM     11  C   UNL     1     -32.745  -9.829  17.077  0.00  0.00    +0.092 C 
ATOM     12  C   UNL     1     -33.440  -9.215  18.302  0.00  0.00    +0.120 C 
BRANCH   5  14
ATOM     13  C   UNL     1     -32.344  -5.154  19.633  0.00  0.00    +0.013 C 
ATOM     14  C   UNL     1     -32.900  -6.560  19.835  0.00  0.00    +0.092 C 
ENDBRANCH   5  14
ENDBRANCH   1  11
BRANCH   3  15
ATOM     15  C   UNL     1     -30.544 -13.059  16.949  0.00  0.00    +0.117 C 
BRANCH  15  16
ATOM     16  C   UNL     1     -30.178 -13.651  15.601  0.00  0.00    -0.026 A 
ATOM     17  C   UNL     1     -30.957 -13.361  14.467  0.00  0.00    +0.005 A 
ATOM     18  C   UNL     1     -30.629 -13.914  13.225  0.00  0.00    +0.000 A 
ATOM     19  C   UNL     1     -29.526 -14.762  13.105  0.00  0.00    +0.000 A 
ATOM     20  C   UNL     1     -28.748 -15.060  14.226  0.00  0.00    +0.000 A 
ATOM     21  C   UNL     1     -29.071 -14.510  15.470  0.00  0.00    +0.005 A 
ENDBRANCH  15  16
BRANCH  15  22
ATOM     22  C   UNL     1     -29.336 -13.092  17.927  0.00  0.00    +0.119 C 
ATOM     23  C   UNL     1     -28.656 -11.719  18.027  0.00  0.00    +0.021 C 
BRANCH  22  24
ATOM     24  C   UNL     1     -29.759 -13.543  19.301  0.00  0.00    +0.310 C 
ATOM     25  O   UNL     1     -28.939 -13.531  20.258  0.00  0.00    -0.251 OA
BRANCH  24  26
ATOM     26  O   UNL     1     -31.068 -13.964  19.517  0.00  0.00    -0.480 OA
ATOM     27  H   UNL     1     -31.852 -13.400  19.211  0.00  0.00    +0.295 HD
ENDBRANCH  24  26
ENDBRANCH  22  24
ENDBRANCH  15  22
ENDBRANCH   3  15
TORSDOF 7
ENDMDL
MODEL 6
REMARK VINA RESULT:    -3.930      2.327      5.860
REMARK INTER + INTRA:          -7.013
REMARK INTER:                  -5.569
REMARK INTRA:                  -1.444
REMARK UNBOUND:                -1.589
REMARK  Name = 
REMARK  9 active torsions:
REMARK  status: ('A' for Active; 'I' for Inactive)
REMARK    1  A    between atoms: C_1  and  C_2
REMARK    2  A    between atoms: C_2  and  C_3
REMARK    3  A    between atoms: C_9  and  C_11
REMARK    4  A    between atoms: N_13  and  C_14
REMARK    5  A    between atoms: C_14  and  C_15
REMARK    6  A    between atoms: C_14  and  C_21
REMARK    7  A    between atoms: C_21  and  C_22
REMARK    8  A    between atoms: C_21  and  C_23
REMARK    9  A    between atoms: C_23  and  O_25
REMARK                            x       y       z     vdW  Elec       q    Type
REMARK                         _______ _______ _______ _____ _____    ______ ____
ROOT
ATOM      1  C   UNL     1     -31.438 -12.269  19.613  0.00  0.00    +0.218 C 
ATOM      2  O   UNL     1     -31.471 -13.379  20.214  0.00  0.00    -0.275 OA
ATOM      3  N   UNL     1     -30.509 -12.059  18.540  0.00  0.00    -0.307 N 
ATOM      4  H   UNL     1     -30.536 -11.148  18.027  0.00  0.00    +0.149 HD
ENDROOT
BRANCH   1  11
ATOM      5  C   UNL     1     -34.201  -8.292  18.434  0.00  0.00    +0.215 C 
ATOM      6  O   UNL     1     -34.360  -7.045  18.547  0.00  0.00    -0.276 OA
ATOM      7  N   UNL     1     -33.348  -8.992  19.365  0.00  0.00    -0.301 N 
ATOM      8  C   UNL     1     -33.039  -8.372  20.663  0.00  0.00    +0.108 C 
ATOM      9  C   UNL     1     -32.939  -9.439  21.758  0.00  0.00    +0.020 C 
ATOM     10  C   UNL     1     -31.971 -10.553  21.352  0.00  0.00    +0.016 C 
ATOM     11  C   UNL     1     -32.396 -11.176  20.013  0.00  0.00    +0.092 C 
ATOM     12  C   UNL     1     -32.485 -10.098  18.921  0.00  0.00    +0.120 C 
BRANCH   5  14
ATOM     13  C   UNL     1     -34.404  -8.574  15.961  0.00  0.00    +0.013 C 
ATOM     14  C   UNL     1     -34.926  -9.007  17.327  0.00  0.00    +0.092 C 
ENDBRANCH   5  14
ENDBRANCH   1  11
BRANCH   3  15
ATOM     15  C   UNL     1     -29.639 -13.131  18.046  0.00  0.00    +0.117 C 
BRANCH  15  16
ATOM     16  C   UNL     1     -29.936 -13.378  16.578  0.00  0.00    -0.026 A 
ATOM     17  C   UNL     1     -30.956 -12.656  15.933  0.00  0.00    +0.005 A 
ATOM     18  C   UNL     1     -31.240 -12.890  14.583  0.00  0.00    +0.000 A 
ATOM     19  C   UNL     1     -30.513 -13.845  13.869  0.00  0.00    +0.000 A 
ATOM     20  C   UNL     1     -29.500 -14.570  14.503  0.00  0.00    +0.000 A 
ATOM     21  C   UNL     1     -29.213 -14.341  15.851  0.00  0.00    +0.005 A 
ENDBRANCH  15  16
BRANCH  15  22
ATOM     22  C   UNL     1     -28.142 -12.776  18.267  0.00  0.00    +0.119 C 
ATOM     23  C   UNL     1     -27.887 -11.273  18.083  0.00  0.00    +0.021 C 
BRANCH  22  24
ATOM     24  C   UNL     1     -27.679 -13.198  19.637  0.00  0.00    +0.310 C 
ATOM     25  O   UNL     1     -28.064 -12.575  20.663  0.00  0.00    -0.251 OA
BRANCH  24  26
ATOM     26  O   UNL     1     -26.827 -14.291  19.771  0.00  0.00    -0.480 OA
ATOM     27  H   UNL     1     -25.853 -14.227  19.498  0.00  0.00    +0.295 HD
ENDBRANCH  24  26
ENDBRANCH  22  24
ENDBRANCH  15  22
ENDBRANCH   3  15
TORSDOF 7
ENDMDL
MODEL 7
REMARK VINA RESULT:    -3.888      2.482      6.587
REMARK INTER + INTRA:          -6.954
REMARK INTER:                  -5.641
REMARK INTRA:                  -1.313
REMARK UNBOUND:                -1.589
REMARK  Name = 
REMARK  9 active torsions:
REMARK  status: ('A' for Active; 'I' for Inactive)
REMARK    1  A    between atoms: C_1  and  C_2
REMARK    2  A    between atoms: C_2  and  C_3
REMARK    3  A    between atoms: C_9  and  C_11
REMARK    4  A    between atoms: N_13  and  C_14
REMARK    5  A    between atoms: C_14  and  C_15
REMARK    6  A    between atoms: C_14  and  C_21
REMARK    7  A    between atoms: C_21  and  C_22
REMARK    8  A    between atoms: C_21  and  C_23
REMARK    9  A    between atoms: C_23  and  O_25
REMARK                            x       y       z     vdW  Elec       q    Type
REMARK                         _______ _______ _______ _____ _____    ______ ____
ROOT
ATOM      1  C   UNL     1     -31.899 -12.508  18.639  0.00  0.00    +0.218 C 
ATOM      2  O   UNL     1     -32.791 -12.445  19.530  0.00  0.00    -0.275 OA
ATOM      3  N   UNL     1     -30.519 -12.327  18.989  0.00  0.00    -0.307 N 
ATOM      4  H   UNL     1     -29.796 -12.433  18.241  0.00  0.00    +0.149 HD
ENDROOT
BRANCH   1  11
ATOM      5  C   UNL     1     -30.652 -13.800  13.990  0.00  0.00    +0.215 C 
ATOM      6  O   UNL     1     -30.528 -13.434  12.789  0.00  0.00    -0.276 OA
ATOM      7  N   UNL     1     -31.455 -13.017  14.899  0.00  0.00    -0.301 N 
ATOM      8  C   UNL     1     -32.457 -12.088  14.354  0.00  0.00    +0.108 C 
ATOM      9  C   UNL     1     -33.693 -12.039  15.259  0.00  0.00    +0.020 C 
ATOM     10  C   UNL     1     -33.299 -11.752  16.710  0.00  0.00    +0.016 C 
ATOM     11  C   UNL     1     -32.289 -12.796  17.212  0.00  0.00    +0.092 C 
ATOM     12  C   UNL     1     -31.051 -12.830  16.302  0.00  0.00    +0.120 C 
BRANCH   5  14
ATOM     13  C   UNL     1     -28.497 -15.062  13.995  0.00  0.00    +0.013 C 
ATOM     14  C   UNL     1     -29.960 -15.062  14.426  0.00  0.00    +0.092 C 
ENDBRANCH   5  14
ENDBRANCH   1  11
BRANCH   3  15
ATOM     15  C   UNL     1     -30.087 -12.158  20.380  0.00  0.00    +0.117 C 
BRANCH  15  16
ATOM     16  C   UNL     1     -28.769 -12.882  20.585  0.00  0.00    -0.026 A 
ATOM     17  C   UNL     1     -28.599 -13.745  21.682  0.00  0.00    +0.005 A 
ATOM     18  C   UNL     1     -27.381 -14.404  21.879  0.00  0.00    +0.000 A 
ATOM     19  C   UNL     1     -26.325 -14.206  20.987  0.00  0.00    +0.000 A 
ATOM     20  C   UNL     1     -26.482 -13.347  19.896  0.00  0.00    +0.000 A 
ATOM     21  C   UNL     1     -27.696 -12.686  19.695  0.00  0.00    +0.005 A 
ENDBRANCH  15  16
BRANCH  15  22
ATOM     22  C   UNL     1     -29.966 -10.652  20.742  0.00  0.00    +0.119 C 
ATOM     23  C   UNL     1     -29.924  -9.771  19.485  0.00  0.00    +0.021 C 
BRANCH  22  24
ATOM     24  C   UNL     1     -31.105 -10.210  21.625  0.00  0.00    +0.310 C 
ATOM     25  O   UNL     1     -31.154  -9.029  22.062  0.00  0.00    -0.251 OA
BRANCH  24  26
ATOM     26  O   UNL     1     -32.116 -11.110  21.950  0.00  0.00    -0.480 OA
ATOM     27  H   UNL     1     -33.087 -10.821  21.956  0.00  0.00    +0.295 HD
ENDBRANCH  24  26
ENDBRANCH  22  24
ENDBRANCH  15  22
ENDBRANCH   3  15
TORSDOF 7
ENDMDL
MODEL 8
REMARK VINA RESULT:    -3.688      3.085      6.412
REMARK INTER + INTRA:          -6.678
REMARK INTER:                  -5.659
REMARK INTRA:                  -1.019
REMARK UNBOUND:                -1.589
REMARK  Name = 
REMARK  9 active torsions:
REMARK  status: ('A' for Active; 'I' for Inactive)
REMARK    1  A    between atoms: C_1  and  C_2
REMARK    2  A    between atoms: C_2  and  C_3
REMARK    3  A    between atoms: C_9  and  C_11
REMARK    4  A    between atoms: N_13  and  C_14
REMARK    5  A    between atoms: C_14  and  C_15
REMARK    6  A    between atoms: C_14  and  C_21
REMARK    7  A    between atoms: C_21  and  C_22
REMARK    8  A    between atoms: C_21  and  C_23
REMARK    9  A    between atoms: C_23  and  O_25
REMARK                            x       y       z     vdW  Elec       q    Type
REMARK                         _______ _______ _______ _____ _____    ______ ____
ROOT
ATOM      1  C   UNL     1     -33.955 -11.634  15.863  0.00  0.00    +0.218 C 
ATOM      2  O   UNL     1     -35.049 -11.886  16.441  0.00  0.00    -0.275 OA
ATOM      3  N   UNL     1     -33.085 -10.617  16.382  0.00  0.00    -0.307 N 
ATOM      4  H   UNL     1     -32.163 -10.463  15.914  0.00  0.00    +0.149 HD
ENDROOT
BRANCH   1  11
ATOM      5  C   UNL     1     -30.508 -14.086  13.228  0.00  0.00    +0.215 C 
ATOM      6  O   UNL     1     -29.779 -14.102  12.198  0.00  0.00    -0.276 OA
ATOM      7  N   UNL     1     -31.655 -13.211  13.281  0.00  0.00    -0.301 N 
ATOM      8  C   UNL     1     -32.224 -12.695  12.026  0.00  0.00    +0.108 C 
ATOM      9  C   UNL     1     -33.748 -12.583  12.133  0.00  0.00    +0.020 C 
ATOM     10  C   UNL     1     -34.154 -11.787  13.376  0.00  0.00    +0.016 C 
ATOM     11  C   UNL     1     -33.558 -12.423  14.642  0.00  0.00    +0.092 C 
ATOM     12  C   UNL     1     -32.029 -12.522  14.527  0.00  0.00    +0.120 C 
BRANCH   5  14
ATOM     13  C   UNL     1     -28.798 -14.633  14.965  0.00  0.00    +0.013 C 
ATOM     14  C   UNL     1     -30.153 -15.001  14.367  0.00  0.00    +0.092 C 
ENDBRANCH   5  14
ENDBRANCH   1  11
BRANCH   3  15
ATOM     15  C   UNL     1     -33.380  -9.906  17.630  0.00  0.00    +0.117 C 
BRANCH  15  16
ATOM     16  C   UNL     1     -32.238 -10.118  18.607  0.00  0.00    -0.026 A 
ATOM     17  C   UNL     1     -32.482 -10.693  19.866  0.00  0.00    +0.005 A 
ATOM     18  C   UNL     1     -31.432 -10.879  20.773  0.00  0.00    +0.000 A 
ATOM     19  C   UNL     1     -30.135 -10.491  20.431  0.00  0.00    +0.000 A 
ATOM     20  C   UNL     1     -29.883  -9.914  19.184  0.00  0.00    +0.000 A 
ATOM     21  C   UNL     1     -30.927  -9.726  18.275  0.00  0.00    +0.005 A 
ENDBRANCH  15  16
BRANCH  15  22
ATOM     22  C   UNL     1     -33.621  -8.395  17.362  0.00  0.00    +0.119 C 
ATOM     23  C   UNL     1     -34.722  -8.177  16.314  0.00  0.00    +0.021 C 
BRANCH  22  24
ATOM     24  C   UNL     1     -33.986  -7.667  18.630  0.00  0.00    +0.310 C 
ATOM     25  O   UNL     1     -33.329  -6.656  18.998  0.00  0.00    -0.251 OA
BRANCH  24  26
ATOM     26  O   UNL     1     -35.062  -8.109  19.394  0.00  0.00    -0.480 OA
ATOM     27  H   UNL     1     -35.046  -9.022  19.834  0.00  0.00    +0.295 HD
ENDBRANCH  24  26
ENDBRANCH  22  24
ENDBRANCH  15  22
ENDBRANCH   3  15
TORSDOF 7
ENDMDL
MODEL 9
REMARK VINA RESULT:    -3.432      2.772      6.992
REMARK INTER + INTRA:          -6.325
REMARK INTER:                  -4.870
REMARK INTRA:                  -1.455
REMARK UNBOUND:                -1.589
REMARK  Name = 
REMARK  9 active torsions:
REMARK  status: ('A' for Active; 'I' for Inactive)
REMARK    1  A    between atoms: C_1  and  C_2
REMARK    2  A    between atoms: C_2  and  C_3
REMARK    3  A    between atoms: C_9  and  C_11
REMARK    4  A    between atoms: N_13  and  C_14
REMARK    5  A    between atoms: C_14  and  C_15
REMARK    6  A    between atoms: C_14  and  C_21
REMARK    7  A    between atoms: C_21  and  C_22
REMARK    8  A    between atoms: C_21  and  C_23
REMARK    9  A    between atoms: C_23  and  O_25
REMARK                            x       y       z     vdW  Elec       q    Type
REMARK                         _______ _______ _______ _____ _____    ______ ____
ROOT
ATOM      1  C   UNL     1     -31.509 -10.216  16.737  0.00  0.00    +0.218 C 
ATOM      2  O   UNL     1     -30.591  -9.452  16.327  0.00  0.00    -0.275 OA
ATOM      3  N   UNL     1     -32.025 -10.069  18.068  0.00  0.00    -0.307 N 
ATOM      4  H   UNL     1     -32.819 -10.681  18.366  0.00  0.00    +0.149 HD
ENDROOT
BRANCH   1  11
ATOM      5  C   UNL     1     -30.852 -14.075  13.652  0.00  0.00    +0.215 C 
ATOM      6  O   UNL     1     -30.892 -14.496  12.463  0.00  0.00    -0.276 OA
ATOM      7  N   UNL     1     -31.545 -12.858  14.005  0.00  0.00    -0.301 N 
ATOM      8  C   UNL     1     -32.625 -12.368  13.136  0.00  0.00    +0.108 C 
ATOM      9  C   UNL     1     -33.734 -11.718  13.971  0.00  0.00    +0.020 C 
ATOM     10  C   UNL     1     -33.160 -10.656  14.912  0.00  0.00    +0.016 C 
ATOM     11  C   UNL     1     -32.075 -11.264  15.814  0.00  0.00    +0.092 C 
ATOM     12  C   UNL     1     -30.965 -11.906  14.966  0.00  0.00    +0.120 C 
BRANCH   5  14
ATOM     13  C   UNL     1     -28.634 -15.060  14.240  0.00  0.00    +0.013 C 
ATOM     14  C   UNL     1     -30.087 -14.877  14.668  0.00  0.00    +0.092 C 
ENDBRANCH   5  14
ENDBRANCH   1  11
BRANCH   3  15
ATOM     15  C   UNL     1     -31.582  -8.991  18.958  0.00  0.00    +0.117 C 
BRANCH  15  16
ATOM     16  C   UNL     1     -32.665  -7.932  19.036  0.00  0.00    -0.026 A 
ATOM     17  C   UNL     1     -32.440  -6.740  19.748  0.00  0.00    +0.005 A 
ATOM     18  C   UNL     1     -33.442  -5.767  19.831  0.00  0.00    +0.000 A 
ATOM     19  C   UNL     1     -34.674  -5.976  19.209  0.00  0.00    +0.000 A 
ATOM     20  C   UNL     1     -34.910  -7.158  18.503  0.00  0.00    +0.000 A 
ATOM     21  C   UNL     1     -33.913  -8.134  18.417  0.00  0.00    +0.005 A 
ENDBRANCH  15  16
BRANCH  15  22
ATOM     22  C   UNL     1     -31.231  -9.545  20.366  0.00  0.00    +0.119 C 
ATOM     23  C   UNL     1     -32.276 -10.562  20.849  0.00  0.00    +0.021 C 
BRANCH  22  24
ATOM     24  C   UNL     1     -29.867 -10.187  20.376  0.00  0.00    +0.310 C 
ATOM     25  O   UNL     1     -29.332 -10.565  19.299  0.00  0.00    -0.251 OA
BRANCH  24  26
ATOM     26  O   UNL     1     -29.190 -10.352  21.580  0.00  0.00    -0.480 OA
ATOM     27  H   UNL     1     -28.457  -9.709  21.856  0.00  0.00    +0.295 HD
ENDBRANCH  24  26
ENDBRANCH  22  24
ENDBRANCH  15  22
ENDBRANCH   3  15
TORSDOF 7
ENDMDL
