MODEL 1
REMARK VINA RESULT:    -3.722      0.000      0.000
REMARK INTER + INTRA:          -5.157
REMARK INTER:                  -4.593
REMARK INTRA:                  -0.565
REMARK UNBOUND:                -0.565
REMARK  Name = 
REMARK  6 active torsions:
REMARK  status: ('A' for Active; 'I' for Inactive)
REMARK    1  A    between atoms: C_1  and  C_2
REMARK    2  A    between atoms: C_2  and  C_3
REMARK    3  A    between atoms: C_3  and  C_4
REMARK    4  A    between atoms: C_3  and  N_6
REMARK    5  A    between atoms: C_4  and  C_5
REMARK    6  A    between atoms: C_10  and  N_14
REMARK                            x       y       z     vdW  Elec       q    Type
REMARK                         _______ _______ _______ _____ _____    ______ ____
ROOT
ATOM      1  N   UNL     1     -31.304 -13.024  20.027  0.00  0.00    -0.311 N 
ATOM      2  C   UNL     1     -29.874 -13.095  20.093  0.00  0.00    +0.217 A 
ATOM      3  N   UNL     1     -29.103 -12.354  19.255  0.00  0.00    -0.221 NA
ATOM      4  C   UNL     1     -27.749 -12.414  19.309  0.00  0.00    +0.150 A 
ATOM      5  C   UNL     1     -27.114 -13.239  20.247  0.00  0.00    +0.184 A 
ATOM      6  C   UNL     1     -27.930 -14.023  21.092  0.00  0.00    +0.152 A 
ATOM      7  N   UNL     1     -27.378 -14.969  22.013  0.00  0.00    -0.341 N 
ATOM      8  N   UNL     1     -29.283 -13.921  20.995  0.00  0.00    -0.198 NA
ATOM      9  H   UNL     1     -31.854 -13.597  20.707  0.00  0.00    +0.149 HD
ATOM     10  H   UNL     1     -28.008 -15.473  22.675  0.00  0.00    +0.144 HD
ATOM     11  H   UNL     1     -26.381 -15.268  21.971  0.00  0.00    +0.144 HD
ENDROOT
BRANCH   5  12
ATOM     12  N   UNL     1     -25.680 -13.242  20.338  0.00  0.00    +0.061 N 
ATOM     13  O   UNL     1     -24.939 -12.429  19.512  0.00  0.00    -0.126 OA
ATOM     14  O   UNL     1     -25.110 -13.807  21.295  0.00  0.00    -0.126 OA
ENDBRANCH   5  12
BRANCH   1  15
ATOM     15  C   UNL     1     -32.006 -12.156  19.072  0.00  0.00    +0.073 C 
BRANCH  15  17
ATOM     16  C   UNL     1     -31.834 -12.947  16.644  0.00  0.00    +0.006 C 
ATOM     17  C   UNL     1     -32.634 -13.020  17.945  0.00  0.00    +0.019 C 
ENDBRANCH  15  17
BRANCH  15  18
ATOM     18  C   UNL     1     -33.065 -11.317  19.825  0.00  0.00    +0.019 C 
ATOM     19  C   UNL     1     -32.698 -11.056  21.285  0.00  0.00    +0.006 C 
ENDBRANCH  15  18
ENDBRANCH   1  15
TORSDOF 4
ENDMDL
MODEL 2
REMARK VINA RESULT:    -3.698      2.043      2.377
REMARK INTER + INTRA:          -5.128
REMARK INTER:                  -4.478
REMARK INTRA:                  -0.649
REMARK UNBOUND:                -0.565
REMARK  Name = 
REMARK  6 active torsions:
REMARK  status: ('A' for Active; 'I' for Inactive)
REMARK    1  A    between atoms: C_1  and  C_2
REMARK    2  A    between atoms: C_2  and  C_3
REMARK    3  A    between atoms: C_3  and  C_4
REMARK    4  A    between atoms: C_3  and  N_6
REMARK    5  A    between atoms: C_4  and  C_5
REMARK    6  A    between atoms: C_10  and  N_14
REMARK                            x       y       z     vdW  Elec       q    Type
REMARK                         _______ _______ _______ _____ _____    ______ ____
ROOT
ATOM      1  N   UNL     1     -30.681 -11.869  17.833  0.00  0.00    -0.311 N 
ATOM      2  C   UNL     1     -29.488 -12.257  18.528  0.00  0.00    +0.217 A 
ATOM      3  N   UNL     1     -28.270 -11.828  18.107  0.00  0.00    -0.221 NA
ATOM      4  C   UNL     1     -27.136 -12.189  18.757  0.00  0.00    +0.150 A 
ATOM      5  C   UNL     1     -27.200 -13.007  19.893  0.00  0.00    +0.184 A 
ATOM      6  C   UNL     1     -28.472 -13.465  20.301  0.00  0.00    +0.152 A 
ATOM      7  N   UNL     1     -28.634 -14.383  21.386  0.00  0.00    -0.341 N 
ATOM      8  N   UNL     1     -29.576 -13.070  19.612  0.00  0.00    -0.198 NA
ATOM      9  H   UNL     1     -31.597 -12.206  18.208  0.00  0.00    +0.149 HD
ATOM     10  H   UNL     1     -29.593 -14.639  21.709  0.00  0.00    +0.144 HD
ATOM     11  H   UNL     1     -27.830 -14.906  21.796  0.00  0.00    +0.144 HD
ENDROOT
BRANCH   5  12
ATOM     12  N   UNL     1     -25.998 -13.326  20.610  0.00  0.00    +0.061 N 
ATOM     13  O   UNL     1     -26.056 -13.608  21.956  0.00  0.00    -0.126 OA
ATOM     14  O   UNL     1     -24.938 -13.561  19.993  0.00  0.00    -0.126 OA
ENDBRANCH   5  12
BRANCH   1  15
ATOM     15  C   UNL     1     -30.656 -10.996  16.652  0.00  0.00    +0.073 C 
BRANCH  15  17
ATOM     16  C   UNL     1     -30.811 -12.939  14.993  0.00  0.00    +0.006 C 
ATOM     17  C   UNL     1     -31.464 -11.653  15.500  0.00  0.00    +0.019 C 
ENDBRANCH  15  17
BRANCH  15  18
ATOM     18  C   UNL     1     -31.207  -9.602  17.033  0.00  0.00    +0.019 C 
ATOM     19  C   UNL     1     -32.669  -9.406  16.635  0.00  0.00    +0.006 C 
ENDBRANCH  15  18
ENDBRANCH   1  15
TORSDOF 4
ENDMDL
MODEL 3
REMARK VINA RESULT:    -3.639      3.668      5.391
REMARK INTER + INTRA:          -5.055
REMARK INTER:                  -4.584
REMARK INTRA:                  -0.471
REMARK UNBOUND:                -0.565
REMARK  Name = 
REMARK  6 active torsions:
REMARK  status: ('A' for Active; 'I' for Inactive)
REMARK    1  A    between atoms: C_1  and  C_2
REMARK    2  A    between atoms: C_2  and  C_3
REMARK    3  A    between atoms: C_3  and  C_4
REMARK    4  A    between atoms: C_3  and  N_6
REMARK    5  A    between atoms: C_4  and  C_5
REMARK    6  A    between atoms: C_10  and  N_14
REMARK                            x       y       z     vdW  Elec       q    Type
REMARK                         _______ _______ _______ _____ _____    ______ ____
ROOT
ATOM      1  N   UNL     1     -29.065 -14.094  14.915  0.00  0.00    -0.311 N 
ATOM      2  C   UNL     1     -29.347 -13.864  16.301  0.00  0.00    +0.217 A 
ATOM      3  N   UNL     1     -30.592 -14.081  16.801  0.00  0.00    -0.221 NA
ATOM      4  C   UNL     1     -30.870 -13.867  18.111  0.00  0.00    +0.150 A 
ATOM      5  C   UNL     1     -29.866 -13.427  18.985  0.00  0.00    +0.184 A 
ATOM      6  C   UNL     1     -28.586 -13.180  18.444  0.00  0.00    +0.152 A 
ATOM      7  N   UNL     1     -27.523 -12.635  19.231  0.00  0.00    -0.341 N 
ATOM      8  N   UNL     1     -28.364 -13.414  17.122  0.00  0.00    -0.198 NA
ATOM      9  H   UNL     1     -28.087 -13.933  14.582  0.00  0.00    +0.149 HD
ATOM     10  H   UNL     1     -26.570 -12.539  18.818  0.00  0.00    +0.144 HD
ATOM     11  H   UNL     1     -27.688 -12.214  20.171  0.00  0.00    +0.144 HD
ENDROOT
BRANCH   5  12
ATOM     12  N   UNL     1     -30.158 -13.269  20.383  0.00  0.00    +0.061 N 
ATOM     13  O   UNL     1     -29.185 -13.531  21.320  0.00  0.00    -0.126 OA
ATOM     14  O   UNL     1     -31.205 -12.695  20.747  0.00  0.00    -0.126 OA
ENDBRANCH   5  12
BRANCH   1  15
ATOM     15  C   UNL     1     -30.084 -14.575  13.973  0.00  0.00    +0.073 C 
BRANCH  15  17
ATOM     16  C   UNL     1     -31.742 -13.557  12.310  0.00  0.00    +0.006 C 
ATOM     17  C   UNL     1     -31.118 -13.448  13.701  0.00  0.00    +0.019 C 
ENDBRANCH  15  17
BRANCH  15  18
ATOM     18  C   UNL     1     -29.395 -15.062  12.677  0.00  0.00    +0.019 C 
ATOM     19  C   UNL     1     -27.938 -14.614  12.566  0.00  0.00    +0.006 C 
ENDBRANCH  15  18
ENDBRANCH   1  15
TORSDOF 4
ENDMDL
MODEL 4
REMARK VINA RESULT:    -3.614      1.875      2.107
REMARK INTER + INTRA:          -5.024
REMARK INTER:                  -4.418
REMARK INTRA:                  -0.606
REMARK UNBOUND:                -0.565
REMARK  Name = 
REMARK  6 active torsions:
REMARK  status: ('A' for Active; 'I' for Inactive)
REMARK    1  A    between atoms: C_1  and  C_2
REMARK    2  A    between atoms: C_2  and  C_3
REMARK    3  A    between atoms: C_3  and  C_4
REMARK    4  A    between atoms: C_3  and  N_6
REMARK    5  A    between atoms: C_4  and  C_5
REMARK    6  A    between atoms: C_10  and  N_14
REMARK                            x       y       z     vdW  Elec       q    Type
REMARK                         _______ _______ _______ _____ _____    ______ ____
ROOT
ATOM      1  N   UNL     1     -30.537 -11.426  18.660  0.00  0.00    -0.311 N 
ATOM      2  C   UNL     1     -29.334 -12.019  19.165  0.00  0.00    +0.217 A 
ATOM      3  N   UNL     1     -28.127 -11.708  18.623  0.00  0.00    -0.221 NA
ATOM      4  C   UNL     1     -26.983 -12.263  19.094  0.00  0.00    +0.150 A 
ATOM      5  C   UNL     1     -27.022 -13.165  20.166  0.00  0.00    +0.184 A 
ATOM      6  C   UNL     1     -28.286 -13.497  20.699  0.00  0.00    +0.152 A 
ATOM      7  N   UNL     1     -28.440 -14.482  21.726  0.00  0.00    -0.341 N 
ATOM      8  N   UNL     1     -29.401 -12.909  20.189  0.00  0.00    -0.198 NA
ATOM      9  H   UNL     1     -31.440 -11.680  19.123  0.00  0.00    +0.149 HD
ATOM     10  H   UNL     1     -29.380 -14.645  22.150  0.00  0.00    +0.144 HD
ATOM     11  H   UNL     1     -27.671 -15.134  21.990  0.00  0.00    +0.144 HD
ENDROOT
BRANCH   5  12
ATOM     12  N   UNL     1     -25.796 -13.693  20.698  0.00  0.00    +0.061 N 
ATOM     13  O   UNL     1     -25.661 -13.879  22.054  0.00  0.00    -0.126 OA
ATOM     14  O   UNL     1     -24.938 -14.184  19.935  0.00  0.00    -0.126 OA
ENDBRANCH   5  12
BRANCH   1  15
ATOM     15  C   UNL     1     -30.535 -10.461  17.553  0.00  0.00    +0.073 C 
BRANCH  15  17
ATOM     16  C   UNL     1     -31.787 -10.296  15.326  0.00  0.00    +0.006 C 
ATOM     17  C   UNL     1     -30.931 -11.179  16.233  0.00  0.00    +0.019 C 
ENDBRANCH  15  17
BRANCH  15  18
ATOM     18  C   UNL     1     -31.488  -9.291  17.891  0.00  0.00    +0.019 C 
ATOM     19  C   UNL     1     -31.377  -8.826  19.342  0.00  0.00    +0.006 C 
ENDBRANCH  15  18
ENDBRANCH   1  15
TORSDOF 4
ENDMDL
MODEL 5
REMARK VINA RESULT:    -3.581      3.483      5.126
REMARK INTER + INTRA:          -4.983
REMARK INTER:                  -4.333
REMARK INTRA:                  -0.650
REMARK UNBOUND:                -0.565
REMARK  Name = 
REMARK  6 active torsions:
REMARK  status: ('A' for Active; 'I' for Inactive)
REMARK    1  A    between atoms: C_1  and  C_2
REMARK    2  A    between atoms: C_2  and  C_3
REMARK    3  A    between atoms: C_3  and  C_4
REMARK    4  A    between atoms: C_3  and  N_6
REMARK    5  A    between atoms: C_4  and  C_5
REMARK    6  A    between atoms: C_10  and  N_14
REMARK                            x       y       z     vdW  Elec       q    Type
REMARK                         _______ _______ _______ _____ _____    ______ ____
ROOT
ATOM      1  N   UNL     1     -30.997 -14.113  15.302  0.00  0.00    -0.311 N 
ATOM      2  C   UNL     1     -30.682 -13.375  16.490  0.00  0.00    +0.217 A 
ATOM      3  N   UNL     1     -30.163 -12.122  16.411  0.00  0.00    -0.221 NA
ATOM      4  C   UNL     1     -29.862 -11.416  17.529  0.00  0.00    +0.150 A 
ATOM      5  C   UNL     1     -30.094 -11.965  18.797  0.00  0.00    +0.184 A 
ATOM      6  C   UNL     1     -30.608 -13.278  18.861  0.00  0.00    +0.152 A 
ATOM      7  N   UNL     1     -30.786 -13.963  20.105  0.00  0.00    -0.341 N 
ATOM      8  N   UNL     1     -30.894 -13.939  17.707  0.00  0.00    -0.198 NA
ATOM      9  H   UNL     1     -31.414 -15.065  15.413  0.00  0.00    +0.149 HD
ATOM     10  H   UNL     1     -31.240 -14.902  20.118  0.00  0.00    +0.144 HD
ATOM     11  H   UNL     1     -30.370 -13.614  20.995  0.00  0.00    +0.144 HD
ENDROOT
BRANCH   5  12
ATOM     12  N   UNL     1     -29.833 -11.180  19.972  0.00  0.00    +0.061 N 
ATOM     13  O   UNL     1     -29.537 -11.804  21.162  0.00  0.00    -0.126 OA
ATOM     14  O   UNL     1     -29.661  -9.947  19.881  0.00  0.00    -0.126 OA
ENDBRANCH   5  12
BRANCH   1  15
ATOM     15  C   UNL     1     -30.788 -13.563  13.955  0.00  0.00    +0.073 C 
BRANCH  15  17
ATOM     16  C   UNL     1     -28.628 -14.564  13.014  0.00  0.00    +0.006 C 
ATOM     17  C   UNL     1     -30.154 -14.648  13.042  0.00  0.00    +0.019 C 
ENDBRANCH  15  17
BRANCH  15  18
ATOM     18  C   UNL     1     -32.134 -13.043  13.399  0.00  0.00    +0.019 C 
ATOM     19  C   UNL     1     -32.370 -13.429  11.940  0.00  0.00    +0.006 C 
ENDBRANCH  15  18
ENDBRANCH   1  15
TORSDOF 4
ENDMDL
MODEL 6
REMARK VINA RESULT:    -3.456      6.367      8.731
REMARK INTER + INTRA:          -4.829
REMARK INTER:                  -4.182
REMARK INTRA:                  -0.647
REMARK UNBOUND:                -0.565
REMARK  Name = 
REMARK  6 active torsions:
REMARK  status: ('A' for Active; 'I' for Inactive)
REMARK    1  A    between atoms: C_1  and  C_2
REMARK    2  A    between atoms: C_2  and  C_3
REMARK    3  A    between atoms: C_3  and  C_4
REMARK    4  A    between atoms: C_3  and  N_6
REMARK    5  A    between atoms: C_4  and  C_5
REMARK    6  A    between atoms: C_10  and  N_14
REMARK                            x       y       z     vdW  Elec       q    Type
REMARK                         _______ _______ _______ _____ _____    ______ ____
ROOT
ATOM      1  N   UNL     1     -30.864 -14.104  14.008  0.00  0.00    -0.311 N 
ATOM      2  C   UNL     1     -31.772 -12.996  14.022  0.00  0.00    +0.217 A 
ATOM      3  N   UNL     1     -31.533 -11.912  14.806  0.00  0.00    -0.221 NA
ATOM      4  C   UNL     1     -32.386 -10.858  14.827  0.00  0.00    +0.150 A 
ATOM      5  C   UNL     1     -33.534 -10.861  14.023  0.00  0.00    +0.184 A 
ATOM      6  C   UNL     1     -33.782 -12.006  13.235  0.00  0.00    +0.152 A 
ATOM      7  N   UNL     1     -34.975 -12.146  12.459  0.00  0.00    -0.341 N 
ATOM      8  N   UNL     1     -32.891 -13.033  13.253  0.00  0.00    -0.198 NA
ATOM      9  H   UNL     1     -31.080 -14.906  13.372  0.00  0.00    +0.149 HD
ATOM     10  H   UNL     1     -35.088 -12.971  11.829  0.00  0.00    +0.144 HD
ATOM     11  H   UNL     1     -35.798 -11.518  12.585  0.00  0.00    +0.144 HD
ENDROOT
BRANCH   5  12
ATOM     12  N   UNL     1     -34.393  -9.709  14.005  0.00  0.00    +0.061 N 
ATOM     13  O   UNL     1     -34.306  -8.773  15.009  0.00  0.00    -0.126 OA
ATOM     14  O   UNL     1     -35.062  -9.438  12.986  0.00  0.00    -0.126 OA
ENDBRANCH   5  12
BRANCH   1  15
ATOM     15  C   UNL     1     -29.640 -14.130  14.819  0.00  0.00    +0.073 C 
BRANCH  15  17
ATOM     16  C   UNL     1     -29.543 -13.645  17.331  0.00  0.00    +0.006 C 
ATOM     17  C   UNL     1     -29.972 -14.636  16.250  0.00  0.00    +0.019 C 
ENDBRANCH  15  17
BRANCH  15  18
ATOM     18  C   UNL     1     -28.579 -15.009  14.119  0.00  0.00    +0.019 C 
ATOM     19  C   UNL     1     -28.252 -14.542  12.701  0.00  0.00    +0.006 C 
ENDBRANCH  15  18
ENDBRANCH   1  15
TORSDOF 4
ENDMDL
MODEL 7
REMARK VINA RESULT:    -3.386      5.231      6.669
REMARK INTER + INTRA:          -4.742
REMARK INTER:                  -4.127
REMARK INTRA:                  -0.615
REMARK UNBOUND:                -0.565
REMARK  Name = 
REMARK  6 active torsions:
REMARK  status: ('A' for Active; 'I' for Inactive)
REMARK    1  A    between atoms: C_1  and  C_2
REMARK    2  A    between atoms: C_2  and  C_3
REMARK    3  A    between atoms: C_3  and  C_4
REMARK    4  A    between atoms: C_3  and  N_6
REMARK    5  A    between atoms: C_4  and  C_5
REMARK    6  A    between atoms: C_10  and  N_14
REMARK                            x       y       z     vdW  Elec       q    Type
REMARK                         _______ _______ _______ _____ _____    ______ ____
ROOT
ATOM      1  N   UNL     1     -32.598 -12.111  14.463  0.00  0.00    -0.311 N 
ATOM      2  C   UNL     1     -32.201 -11.261  15.547  0.00  0.00    +0.217 A 
ATOM      3  N   UNL     1     -30.917 -10.829  15.656  0.00  0.00    -0.221 NA
ATOM      4  C   UNL     1     -30.531 -10.025  16.677  0.00  0.00    +0.150 A 
ATOM      5  C   UNL     1     -31.460  -9.611  17.642  0.00  0.00    +0.184 A 
ATOM      6  C   UNL     1     -32.783 -10.091  17.529  0.00  0.00    +0.152 A 
ATOM      7  N   UNL     1     -33.778  -9.807  18.517  0.00  0.00    -0.341 N 
ATOM      8  N   UNL     1     -33.114 -10.894  16.483  0.00  0.00    -0.198 NA
ATOM      9  H   UNL     1     -33.601 -12.400  14.410  0.00  0.00    +0.149 HD
ATOM     10  H   UNL     1     -34.764 -10.114  18.362  0.00  0.00    +0.144 HD
ATOM     11  H   UNL     1     -33.537  -9.408  19.450  0.00  0.00    +0.144 HD
ENDROOT
BRANCH   5  12
ATOM     12  N   UNL     1     -31.052  -8.705  18.680  0.00  0.00    +0.061 N 
ATOM     13  O   UNL     1     -31.930  -7.750  19.140  0.00  0.00    -0.126 OA
ATOM     14  O   UNL     1     -29.998  -8.909  19.317  0.00  0.00    -0.126 OA
ENDBRANCH   5  12
BRANCH   1  15
ATOM     15  C   UNL     1     -31.659 -12.549  13.422  0.00  0.00    +0.073 C 
BRANCH  15  17
ATOM     16  C   UNL     1     -29.927 -14.344  12.848  0.00  0.00    +0.006 C 
ATOM     17  C   UNL     1     -30.937 -13.845  13.881  0.00  0.00    +0.019 C 
ENDBRANCH  15  17
BRANCH  15  18
ATOM     18  C   UNL     1     -32.424 -12.745  12.092  0.00  0.00    +0.019 C 
ATOM     19  C   UNL     1     -33.941 -12.774  12.270  0.00  0.00    +0.006 C 
ENDBRANCH  15  18
ENDBRANCH   1  15
TORSDOF 4
ENDMDL
MODEL 8
REMARK VINA RESULT:    -1.170      5.515      7.078
REMARK INTER + INTRA:          -2.008
REMARK INTER:                  -1.341
REMARK INTRA:                  -0.666
REMARK UNBOUND:                -0.565
REMARK  Name = 
REMARK  6 active torsions:
REMARK  status: ('A' for Active; 'I' for Inactive)
REMARK    1  A    between atoms: C_1  and  C_2
REMARK    2  A    between atoms: C_2  and  C_3
REMARK    3  A    between atoms: C_3  and  C_4
REMARK    4  A    between atoms: C_3  and  N_6
REMARK    5  A    between atoms: C_4  and  C_5
REMARK    6  A    between atoms: C_10  and  N_14
REMARK                            x       y       z     vdW  Elec       q    Type
REMARK                         _______ _______ _______ _____ _____    ______ ____
ROOT
ATOM      1  N   UNL     1     -31.627 -11.975  13.937  0.00  0.00    -0.311 N 
ATOM      2  C   UNL     1     -32.084 -11.652  15.257  0.00  0.00    +0.217 A 
ATOM      3  N   UNL     1     -32.659 -12.599  16.043  0.00  0.00    -0.221 NA
ATOM      4  C   UNL     1     -33.094 -12.304  17.293  0.00  0.00    +0.150 A 
ATOM      5  C   UNL     1     -32.947 -11.009  17.807  0.00  0.00    +0.184 A 
ATOM      6  C   UNL     1     -32.372 -10.030  16.966  0.00  0.00    +0.152 A 
ATOM      7  N   UNL     1     -32.270  -8.659  17.362  0.00  0.00    -0.341 N 
ATOM      8  N   UNL     1     -31.952 -10.383  15.722  0.00  0.00    -0.198 NA
ATOM      9  H   UNL     1     -31.172 -11.218  13.378  0.00  0.00    +0.149 HD
ATOM     10  H   UNL     1     -31.769  -7.979  16.747  0.00  0.00    +0.144 HD
ATOM     11  H   UNL     1     -32.781  -8.278  18.187  0.00  0.00    +0.144 HD
ENDROOT
BRANCH   5  12
ATOM     12  N   UNL     1     -33.352 -10.727  19.156  0.00  0.00    +0.061 N 
ATOM     13  O   UNL     1     -33.064 -11.623  20.159  0.00  0.00    -0.126 OA
ATOM     14  O   UNL     1     -33.767  -9.591  19.466  0.00  0.00    -0.126 OA
ENDBRANCH   5  12
BRANCH   1  15
ATOM     15  C   UNL     1     -31.744 -13.325  13.372  0.00  0.00    +0.073 C 
BRANCH  15  17
ATOM     16  C   UNL     1     -33.784 -12.746  11.937  0.00  0.00    +0.006 C 
ATOM     17  C   UNL     1     -32.338 -13.242  11.939  0.00  0.00    +0.019 C 
ENDBRANCH  15  17
BRANCH  15  18
ATOM     18  C   UNL     1     -30.359 -14.012  13.392  0.00  0.00    +0.019 C 
ATOM     19  C   UNL     1     -30.121 -14.848  14.649  0.00  0.00    +0.006 C 
ENDBRANCH  15  18
ENDBRANCH   1  15
TORSDOF 4
ENDMDL
