MODEL 1
REMARK VINA RESULT:    -4.229      0.000      0.000
REMARK INTER + INTRA:          -8.369
REMARK INTER:                  -5.959
REMARK INTRA:                  -2.410
REMARK UNBOUND:                -2.410
REMARK  Name = 
REMARK  7 active torsions:
REMARK  status: ('A' for Active; 'I' for Inactive)
REMARK    1  A    between atoms: C_2  and  C_16
REMARK    2  A    between atoms: N_3  and  C_4
REMARK    3  A    between atoms: C_4  and  C_5
REMARK    4  A    between atoms: C_10  and  O_11
REMARK    5  A    between atoms: O_11  and  C_12
REMARK    6  A    between atoms: C_12  and  C_13
REMARK    7  A    between atoms: C_18  and  C_19
REMARK                            x       y       z     vdW  Elec       q    Type
REMARK                         _______ _______ _______ _____ _____    ______ ____
ROOT
ATOM      1  O   UNL     1     -28.737  -9.914  18.519  0.00  0.00    -0.275 OA
ATOM      2  C   UNL     1     -29.035 -10.955  17.875  0.00  0.00    +0.217 C 
ATOM      3  N   UNL     1     -29.926 -10.879  16.754  0.00  0.00    -0.311 N 
ATOM      4  H   UNL     1     -30.098 -11.740  16.188  0.00  0.00    +0.149 HD
ENDROOT
BRANCH   2   5
ATOM      5  C   UNL     1     -28.429 -12.283  18.251  0.00  0.00    +0.083 C 
ATOM      6  C   UNL     1     -27.887 -12.381  19.672  0.00  0.00    +0.022 C 
ATOM      7  C   UNL     1     -29.167 -13.127  19.301  0.00  0.00    +0.033 C 
BRANCH   7   8
ATOM      8  C   UNL     1     -30.445 -12.568  19.881  0.00  0.00    -0.025 A 
ATOM      9  C   UNL     1     -31.657 -12.623  19.172  0.00  0.00    +0.007 A 
ATOM     10  C   UNL     1     -32.813 -12.061  19.718  0.00  0.00    +0.020 A 
ATOM     11  C   UNL     1     -32.743 -11.422  20.958  0.00  0.00    +0.111 A 
ATOM     12  N   UNL     1     -31.555 -11.338  21.613  0.00  0.00    -0.263 NA
ATOM     13  C   UNL     1     -30.417 -11.880  21.103  0.00  0.00    +0.114 A 
ENDBRANCH   7   8
ENDBRANCH   2   5
BRANCH   3  14
ATOM     14  C   UNL     1     -30.657  -9.662  16.409  0.00  0.00    +0.143 C 
BRANCH  14  15
ATOM     15  C   UNL     1     -32.126  -9.961  16.236  0.00  0.00    +0.011 A 
ATOM     16  C   UNL     1     -33.052  -9.337  17.087  0.00  0.00    +0.009 A 
ATOM     17  C   UNL     1     -34.415  -9.614  16.977  0.00  0.00    +0.001 A 
ATOM     18  C   UNL     1     -34.868 -10.526  16.026  0.00  0.00    +0.004 A 
ATOM     19  C   UNL     1     -33.960 -11.159  15.173  0.00  0.00    +0.046 A 
ATOM     20  C   UNL     1     -32.581 -10.880  15.261  0.00  0.00    +0.125 A 
BRANCH  20  21
ATOM     21  O   UNL     1     -31.642 -11.494  14.414  0.00  0.00    -0.491 OA
BRANCH  21  22
ATOM     22  C   UNL     1     -31.561 -12.890  14.131  0.00  0.00    +0.232 C 
BRANCH  22  23
ATOM     23  C   UNL     1     -30.349 -13.506  14.843  0.00  0.00    +0.027 C 
ATOM     24  C   UNL     1     -30.712 -14.497  15.940  0.00  0.00    +0.007 C 
ATOM     25  C   UNL     1     -30.120 -14.998  14.635  0.00  0.00    +0.007 C 
ENDBRANCH  22  23
ENDBRANCH  21  22
ENDBRANCH  20  21
ENDBRANCH  14  15
ENDBRANCH   3  14
TORSDOF 7
ENDMDL
MODEL 2
REMARK VINA RESULT:    -4.192      1.800      5.974
REMARK INTER + INTRA:          -8.317
REMARK INTER:                  -5.781
REMARK INTRA:                  -2.536
REMARK UNBOUND:                -2.410
REMARK  Name = 
REMARK  7 active torsions:
REMARK  status: ('A' for Active; 'I' for Inactive)
REMARK    1  A    between atoms: C_2  and  C_16
REMARK    2  A    between atoms: N_3  and  C_4
REMARK    3  A    between atoms: C_4  and  C_5
REMARK    4  A    between atoms: C_10  and  O_11
REMARK    5  A    between atoms: O_11  and  C_12
REMARK    6  A    between atoms: C_12  and  C_13
REMARK    7  A    between atoms: C_18  and  C_19
REMARK                            x       y       z     vdW  Elec       q    Type
REMARK                         _______ _______ _______ _____ _____    ______ ____
ROOT
ATOM      1  O   UNL     1     -30.556  -9.437  16.010  0.00  0.00    -0.275 OA
ATOM      2  C   UNL     1     -31.456  -9.830  16.798  0.00  0.00    +0.217 C 
ATOM      3  N   UNL     1     -31.186  -9.946  18.202  0.00  0.00    -0.311 N 
ATOM      4  H   UNL     1     -31.969 -10.199  18.847  0.00  0.00    +0.149 HD
ENDROOT
BRANCH   2   5
ATOM      5  C   UNL     1     -32.837 -10.145  16.281  0.00  0.00    +0.083 C 
ATOM      6  C   UNL     1     -32.905 -10.636  14.840  0.00  0.00    +0.022 C 
ATOM      7  C   UNL     1     -33.164 -11.615  15.983  0.00  0.00    +0.033 C 
BRANCH   7   8
ATOM      8  C   UNL     1     -32.082 -12.641  16.228  0.00  0.00    -0.025 A 
ATOM      9  C   UNL     1     -31.080 -12.891  15.276  0.00  0.00    +0.007 A 
ATOM     10  C   UNL     1     -30.118 -13.875  15.515  0.00  0.00    +0.020 A 
ATOM     11  C   UNL     1     -30.181 -14.621  16.693  0.00  0.00    +0.111 A 
ATOM     12  N   UNL     1     -31.181 -14.399  17.586  0.00  0.00    -0.263 NA
ATOM     13  C   UNL     1     -32.128 -13.445  17.377  0.00  0.00    +0.114 A 
ENDBRANCH   7   8
ENDBRANCH   2   5
BRANCH   3  14
ATOM     14  C   UNL     1     -29.845  -9.791  18.762  0.00  0.00    +0.143 C 
BRANCH  14  15
ATOM     15  C   UNL     1     -29.348 -11.107  19.309  0.00  0.00    +0.011 A 
ATOM     16  C   UNL     1     -28.078 -11.566  18.925  0.00  0.00    +0.009 A 
ATOM     17  C   UNL     1     -27.598 -12.793  19.386  0.00  0.00    +0.001 A 
ATOM     18  C   UNL     1     -28.386 -13.581  20.224  0.00  0.00    +0.004 A 
ATOM     19  C   UNL     1     -29.654 -13.141  20.612  0.00  0.00    +0.046 A 
ATOM     20  C   UNL     1     -30.147 -11.898  20.168  0.00  0.00    +0.125 A 
BRANCH  20  21
ATOM     21  O   UNL     1     -31.416 -11.423  20.546  0.00  0.00    -0.491 OA
BRANCH  21  22
ATOM     22  C   UNL     1     -31.785 -10.971  21.848  0.00  0.00    +0.232 C 
BRANCH  22  23
ATOM     23  C   UNL     1     -32.878  -9.900  21.748  0.00  0.00    +0.027 C 
ATOM     24  C   UNL     1     -33.875 -10.134  20.621  0.00  0.00    +0.007 C 
ATOM     25  C   UNL     1     -34.301 -10.345  22.062  0.00  0.00    +0.007 C 
ENDBRANCH  22  23
ENDBRANCH  21  22
ENDBRANCH  20  21
ENDBRANCH  14  15
ENDBRANCH   3  14
TORSDOF 7
ENDMDL
MODEL 3
REMARK VINA RESULT:    -4.182      2.129      4.709
REMARK INTER + INTRA:          -8.304
REMARK INTER:                  -6.613
REMARK INTRA:                  -1.692
REMARK UNBOUND:                -2.410
REMARK  Name = 
REMARK  7 active torsions:
REMARK  status: ('A' for Active; 'I' for Inactive)
REMARK    1  A    between atoms: C_2  and  C_16
REMARK    2  A    between atoms: N_3  and  C_4
REMARK    3  A    between atoms: C_4  and  C_5
REMARK    4  A    between atoms: C_10  and  O_11
REMARK    5  A    between atoms: O_11  and  C_12
REMARK    6  A    between atoms: C_12  and  C_13
REMARK    7  A    between atoms: C_18  and  C_19
REMARK                            x       y       z     vdW  Elec       q    Type
REMARK                         _______ _______ _______ _____ _____    ______ ____
ROOT
ATOM      1  O   UNL     1     -31.074 -13.888  19.269  0.00  0.00    -0.275 OA
ATOM      2  C   UNL     1     -30.451 -12.940  18.719  0.00  0.00    +0.217 C 
ATOM      3  N   UNL     1     -29.901 -13.104  17.405  0.00  0.00    -0.311 N 
ATOM      4  H   UNL     1     -29.457 -12.282  16.938  0.00  0.00    +0.149 HD
ENDROOT
BRANCH   2   5
ATOM      5  C   UNL     1     -30.313 -11.613  19.420  0.00  0.00    +0.083 C 
ATOM      6  C   UNL     1     -30.502 -11.643  20.932  0.00  0.00    +0.022 C 
ATOM      7  C   UNL     1     -29.106 -11.426  20.351  0.00  0.00    +0.033 C 
BRANCH   7   8
ATOM      8  C   UNL     1     -28.146 -12.583  20.499  0.00  0.00    -0.025 A 
ATOM      9  C   UNL     1     -28.256 -13.495  21.562  0.00  0.00    +0.007 A 
ATOM     10  C   UNL     1     -27.327 -14.530  21.694  0.00  0.00    +0.020 A 
ATOM     11  C   UNL     1     -26.277 -14.627  20.779  0.00  0.00    +0.111 A 
ATOM     12  N   UNL     1     -26.157 -13.712  19.782  0.00  0.00    -0.263 NA
ATOM     13  C   UNL     1     -27.050 -12.698  19.630  0.00  0.00    +0.114 A 
ENDBRANCH   7   8
ENDBRANCH   2   5
BRANCH   3  14
ATOM     14  C   UNL     1     -29.875 -14.393  16.717  0.00  0.00    +0.143 C 
BRANCH  14  15
ATOM     15  C   UNL     1     -30.263 -14.224  15.268  0.00  0.00    +0.011 A 
ATOM     16  C   UNL     1     -29.427 -14.759  14.274  0.00  0.00    +0.009 A 
ATOM     17  C   UNL     1     -29.737 -14.595  12.924  0.00  0.00    +0.001 A 
ATOM     18  C   UNL     1     -30.876 -13.885  12.550  0.00  0.00    +0.004 A 
ATOM     19  C   UNL     1     -31.717 -13.343  13.525  0.00  0.00    +0.046 A 
ATOM     20  C   UNL     1     -31.426 -13.513  14.894  0.00  0.00    +0.125 A 
BRANCH  20  21
ATOM     21  O   UNL     1     -32.255 -12.986  15.901  0.00  0.00    -0.491 OA
BRANCH  21  22
ATOM     22  C   UNL     1     -33.241 -11.970  15.724  0.00  0.00    +0.232 C 
BRANCH  22  23
ATOM     23  C   UNL     1     -32.926 -10.764  16.619  0.00  0.00    +0.027 C 
ATOM     24  C   UNL     1     -31.718  -9.956  16.170  0.00  0.00    +0.007 C 
ATOM     25  C   UNL     1     -33.113  -9.385  15.998  0.00  0.00    +0.007 C 
ENDBRANCH  22  23
ENDBRANCH  21  22
ENDBRANCH  20  21
ENDBRANCH  14  15
ENDBRANCH   3  14
TORSDOF 7
ENDMDL
MODEL 4
REMARK VINA RESULT:    -4.125      2.387      4.807
REMARK INTER + INTRA:          -8.223
REMARK INTER:                  -7.503
REMARK INTRA:                  -0.719
REMARK UNBOUND:                -2.410
REMARK  Name = 
REMARK  7 active torsions:
REMARK  status: ('A' for Active; 'I' for Inactive)
REMARK    1  A    between atoms: C_2  and  C_16
REMARK    2  A    between atoms: N_3  and  C_4
REMARK    3  A    between atoms: C_4  and  C_5
REMARK    4  A    between atoms: C_10  and  O_11
REMARK    5  A    between atoms: O_11  and  C_12
REMARK    6  A    between atoms: C_12  and  C_13
REMARK    7  A    between atoms: C_18  and  C_19
REMARK                            x       y       z     vdW  Elec       q    Type
REMARK                         _______ _______ _______ _____ _____    ______ ____
ROOT
ATOM      1  O   UNL     1     -32.200 -12.010  17.931  0.00  0.00    -0.275 OA
ATOM      2  C   UNL     1     -31.206 -11.521  17.331  0.00  0.00    +0.217 C 
ATOM      3  N   UNL     1     -30.546 -12.268  16.300  0.00  0.00    -0.311 N 
ATOM      4  H   UNL     1     -29.774 -11.813  15.763  0.00  0.00    +0.149 HD
ENDROOT
BRANCH   2   5
ATOM      5  C   UNL     1     -30.724 -10.132  17.663  0.00  0.00    +0.083 C 
ATOM      6  C   UNL     1     -30.927  -9.691  19.108  0.00  0.00    +0.022 C 
ATOM      7  C   UNL     1     -29.519 -10.007  18.608  0.00  0.00    +0.033 C 
BRANCH   7   8
ATOM      8  C   UNL     1     -28.904 -11.281  19.137  0.00  0.00    -0.025 A 
ATOM      9  C   UNL     1     -29.413 -11.922  20.278  0.00  0.00    +0.007 A 
ATOM     10  C   UNL     1     -28.795 -13.077  20.765  0.00  0.00    +0.020 A 
ATOM     11  C   UNL     1     -27.656 -13.566  20.124  0.00  0.00    +0.111 A 
ATOM     12  N   UNL     1     -27.149 -12.912  19.047  0.00  0.00    -0.263 NA
ATOM     13  C   UNL     1     -27.733 -11.787  18.552  0.00  0.00    +0.114 A 
ENDBRANCH   7   8
ENDBRANCH   2   5
BRANCH   3  14
ATOM     14  C   UNL     1     -30.865 -13.664  16.012  0.00  0.00    +0.143 C 
BRANCH  14  15
ATOM     15  C   UNL     1     -30.079 -14.148  14.818  0.00  0.00    +0.011 A 
ATOM     16  C   UNL     1     -28.777 -14.636  15.014  0.00  0.00    +0.009 A 
ATOM     17  C   UNL     1     -28.009 -15.062  13.929  0.00  0.00    +0.001 A 
ATOM     18  C   UNL     1     -28.527 -14.994  12.637  0.00  0.00    +0.004 A 
ATOM     19  C   UNL     1     -29.819 -14.508  12.424  0.00  0.00    +0.046 A 
ATOM     20  C   UNL     1     -30.613 -14.088  13.510  0.00  0.00    +0.125 A 
BRANCH  20  21
ATOM     21  O   UNL     1     -31.920 -13.600  13.330  0.00  0.00    -0.491 OA
BRANCH  21  22
ATOM     22  C   UNL     1     -32.551 -13.344  12.076  0.00  0.00    +0.232 C 
BRANCH  22  23
ATOM     23  C   UNL     1     -34.008 -12.915  12.294  0.00  0.00    +0.027 C 
ATOM     24  C   UNL     1     -34.193 -11.889  13.403  0.00  0.00    +0.007 C 
ATOM     25  C   UNL     1     -34.351 -11.470  11.954  0.00  0.00    +0.007 C 
ENDBRANCH  22  23
ENDBRANCH  21  22
ENDBRANCH  20  21
ENDBRANCH  14  15
ENDBRANCH   3  14
TORSDOF 7
ENDMDL
MODEL 5
REMARK VINA RESULT:    -4.109      2.030      4.573
REMARK INTER + INTRA:          -8.201
REMARK INTER:                  -7.030
REMARK INTRA:                  -1.171
REMARK UNBOUND:                -2.410
REMARK  Name = 
REMARK  7 active torsions:
REMARK  status: ('A' for Active; 'I' for Inactive)
REMARK    1  A    between atoms: C_2  and  C_16
REMARK    2  A    between atoms: N_3  and  C_4
REMARK    3  A    between atoms: C_4  and  C_5
REMARK    4  A    between atoms: C_10  and  O_11
REMARK    5  A    between atoms: O_11  and  C_12
REMARK    6  A    between atoms: C_12  and  C_13
REMARK    7  A    between atoms: C_18  and  C_19
REMARK                            x       y       z     vdW  Elec       q    Type
REMARK                         _______ _______ _______ _____ _____    ______ ____
ROOT
ATOM      1  O   UNL     1     -30.717 -13.828  18.958  0.00  0.00    -0.275 OA
ATOM      2  C   UNL     1     -29.577 -13.555  18.499  0.00  0.00    +0.217 C 
ATOM      3  N   UNL     1     -29.266 -13.832  17.126  0.00  0.00    -0.311 N 
ATOM      4  H   UNL     1     -28.341 -13.526  16.748  0.00  0.00    +0.149 HD
ENDROOT
BRANCH   2   5
ATOM      5  C   UNL     1     -28.541 -12.898  19.375  0.00  0.00    +0.083 C 
ATOM      6  C   UNL     1     -27.540 -12.002  18.654  0.00  0.00    +0.022 C 
ATOM      7  C   UNL     1     -28.615 -11.372  19.538  0.00  0.00    +0.033 C 
BRANCH   7   8
ATOM      8  C   UNL     1     -29.718 -10.640  18.811  0.00  0.00    -0.025 A 
ATOM      9  C   UNL     1     -29.599 -10.295  17.455  0.00  0.00    +0.007 A 
ATOM     10  C   UNL     1     -30.619  -9.581  16.822  0.00  0.00    +0.020 A 
ATOM     11  C   UNL     1     -31.740  -9.192  17.558  0.00  0.00    +0.111 A 
ATOM     12  N   UNL     1     -31.823  -9.494  18.880  0.00  0.00    -0.263 NA
ATOM     13  C   UNL     1     -30.844 -10.190  19.518  0.00  0.00    +0.114 A 
ENDBRANCH   7   8
ENDBRANCH   2   5
BRANCH   3  14
ATOM     14  C   UNL     1     -30.162 -14.585  16.252  0.00  0.00    +0.143 C 
BRANCH  14  15
ATOM     15  C   UNL     1     -29.631 -14.598  14.839  0.00  0.00    +0.011 A 
ATOM     16  C   UNL     1     -28.280 -14.915  14.625  0.00  0.00    +0.009 A 
ATOM     17  C   UNL     1     -27.746 -14.906  13.336  0.00  0.00    +0.001 A 
ATOM     18  C   UNL     1     -28.550 -14.568  12.249  0.00  0.00    +0.004 A 
ATOM     19  C   UNL     1     -29.896 -14.247  12.445  0.00  0.00    +0.046 A 
ATOM     20  C   UNL     1     -30.454 -14.266  13.739  0.00  0.00    +0.125 A 
BRANCH  20  21
ATOM     21  O   UNL     1     -31.806 -13.955  13.970  0.00  0.00    -0.491 OA
BRANCH  21  22
ATOM     22  C   UNL     1     -32.488 -12.793  13.499  0.00  0.00    +0.232 C 
BRANCH  22  23
ATOM     23  C   UNL     1     -32.558 -11.734  14.607  0.00  0.00    +0.027 C 
ATOM     24  C   UNL     1     -33.669 -10.711  14.417  0.00  0.00    +0.007 C 
ATOM     25  C   UNL     1     -33.791 -11.765  15.502  0.00  0.00    +0.007 C 
ENDBRANCH  22  23
ENDBRANCH  21  22
ENDBRANCH  20  21
ENDBRANCH  14  15
ENDBRANCH   3  14
TORSDOF 7
ENDMDL
MODEL 6
REMARK VINA RESULT:    -4.088      1.969      4.608
REMARK INTER + INTRA:          -8.172
REMARK INTER:                  -6.857
REMARK INTRA:                  -1.315
REMARK UNBOUND:                -2.410
REMARK  Name = 
REMARK  7 active torsions:
REMARK  status: ('A' for Active; 'I' for Inactive)
REMARK    1  A    between atoms: C_2  and  C_16
REMARK    2  A    between atoms: N_3  and  C_4
REMARK    3  A    between atoms: C_4  and  C_5
REMARK    4  A    between atoms: C_10  and  O_11
REMARK    5  A    between atoms: O_11  and  C_12
REMARK    6  A    between atoms: C_12  and  C_13
REMARK    7  A    between atoms: C_18  and  C_19
REMARK                            x       y       z     vdW  Elec       q    Type
REMARK                         _______ _______ _______ _____ _____    ______ ____
ROOT
ATOM      1  O   UNL     1     -29.565 -11.716  16.835  0.00  0.00    -0.275 OA
ATOM      2  C   UNL     1     -30.702 -11.495  16.341  0.00  0.00    +0.217 C 
ATOM      3  N   UNL     1     -31.559 -12.589  15.984  0.00  0.00    -0.311 N 
ATOM      4  H   UNL     1     -32.527 -12.382  15.648  0.00  0.00    +0.149 HD
ENDROOT
BRANCH   2   5
ATOM      5  C   UNL     1     -31.190 -10.081  16.156  0.00  0.00    +0.083 C 
ATOM      6  C   UNL     1     -32.677  -9.859  16.405  0.00  0.00    +0.022 C 
ATOM      7  C   UNL     1     -31.657  -9.323  17.407  0.00  0.00    +0.033 C 
BRANCH   7   8
ATOM      8  C   UNL     1     -31.594 -10.046  18.732  0.00  0.00    -0.025 A 
ATOM      9  C   UNL     1     -32.629 -10.897  19.152  0.00  0.00    +0.007 A 
ATOM     10  C   UNL     1     -32.559 -11.519  20.401  0.00  0.00    +0.020 A 
ATOM     11  C   UNL     1     -31.469 -11.261  21.234  0.00  0.00    +0.111 A 
ATOM     12  N   UNL     1     -30.496 -10.401  20.834  0.00  0.00    -0.263 NA
ATOM     13  C   UNL     1     -30.539  -9.786  19.621  0.00  0.00    +0.114 A 
ENDBRANCH   7   8
ENDBRANCH   2   5
BRANCH   3  14
ATOM     14  C   UNL     1     -31.112 -13.979  16.006  0.00  0.00    +0.143 C 
BRANCH  14  15
ATOM     15  C   UNL     1     -30.212 -14.262  14.827  0.00  0.00    +0.011 A 
ATOM     16  C   UNL     1     -28.944 -14.817  15.059  0.00  0.00    +0.009 A 
ATOM     17  C   UNL     1     -28.072 -15.062  13.997  0.00  0.00    +0.001 A 
ATOM     18  C   UNL     1     -28.452 -14.743  12.694  0.00  0.00    +0.004 A 
ATOM     19  C   UNL     1     -29.709 -14.186  12.447  0.00  0.00    +0.046 A 
ATOM     20  C   UNL     1     -30.607 -13.947  13.506  0.00  0.00    +0.125 A 
BRANCH  20  21
ATOM     21  O   UNL     1     -31.882 -13.393  13.290  0.00  0.00    -0.491 OA
BRANCH  21  22
ATOM     22  C   UNL     1     -32.589 -13.384  12.052  0.00  0.00    +0.232 C 
BRANCH  22  23
ATOM     23  C   UNL     1     -34.042 -12.944  12.274  0.00  0.00    +0.027 C 
ATOM     24  C   UNL     1     -34.253 -12.112  13.531  0.00  0.00    +0.007 C 
ATOM     25  C   UNL     1     -34.326 -11.451  12.167  0.00  0.00    +0.007 C 
ENDBRANCH  22  23
ENDBRANCH  21  22
ENDBRANCH  20  21
ENDBRANCH  14  15
ENDBRANCH   3  14
TORSDOF 7
ENDMDL
MODEL 7
REMARK VINA RESULT:    -3.961      1.976      5.623
REMARK INTER + INTRA:          -7.992
REMARK INTER:                  -5.850
REMARK INTRA:                  -2.141
REMARK UNBOUND:                -2.410
REMARK  Name = 
REMARK  7 active torsions:
REMARK  status: ('A' for Active; 'I' for Inactive)
REMARK    1  A    between atoms: C_2  and  C_16
REMARK    2  A    between atoms: N_3  and  C_4
REMARK    3  A    between atoms: C_4  and  C_5
REMARK    4  A    between atoms: C_10  and  O_11
REMARK    5  A    between atoms: O_11  and  C_12
REMARK    6  A    between atoms: C_12  and  C_13
REMARK    7  A    between atoms: C_18  and  C_19
REMARK                            x       y       z     vdW  Elec       q    Type
REMARK                         _______ _______ _______ _____ _____    ______ ____
ROOT
ATOM      1  O   UNL     1     -31.210 -10.478  20.611  0.00  0.00    -0.275 OA
ATOM      2  C   UNL     1     -32.240 -11.125  20.283  0.00  0.00    +0.217 C 
ATOM      3  N   UNL     1     -32.172 -12.545  20.099  0.00  0.00    -0.311 N 
ATOM      4  H   UNL     1     -33.054 -13.071  19.903  0.00  0.00    +0.149 HD
ENDROOT
BRANCH   2   5
ATOM      5  C   UNL     1     -33.562 -10.419  20.120  0.00  0.00    +0.083 C 
ATOM      6  C   UNL     1     -33.480  -8.944  19.743  0.00  0.00    +0.022 C 
ATOM      7  C   UNL     1     -33.951  -9.961  18.706  0.00  0.00    +0.033 C 
BRANCH   7   8
ATOM      8  C   UNL     1     -32.984 -10.250  17.582  0.00  0.00    -0.025 A 
ATOM      9  C   UNL     1     -31.812  -9.496  17.412  0.00  0.00    +0.007 A 
ATOM     10  C   UNL     1     -30.959  -9.762  16.338  0.00  0.00    +0.020 A 
ATOM     11  C   UNL     1     -31.300 -10.761  15.424  0.00  0.00    +0.111 A 
ATOM     12  N   UNL     1     -32.459 -11.454  15.576  0.00  0.00    -0.263 NA
ATOM     13  C   UNL     1     -33.304 -11.216  16.615  0.00  0.00    +0.114 A 
ENDBRANCH   7   8
ENDBRANCH   2   5
BRANCH   3  14
ATOM     14  C   UNL     1     -30.910 -13.281  20.106  0.00  0.00    +0.143 C 
BRANCH  14  15
ATOM     15  C   UNL     1     -30.419 -13.498  18.695  0.00  0.00    +0.011 A 
ATOM     16  C   UNL     1     -31.229 -14.211  17.797  0.00  0.00    +0.009 A 
ATOM     17  C   UNL     1     -30.795 -14.458  16.494  0.00  0.00    +0.001 A 
ATOM     18  C   UNL     1     -29.543 -14.009  16.078  0.00  0.00    +0.004 A 
ATOM     19  C   UNL     1     -28.723 -13.301  16.960  0.00  0.00    +0.046 A 
ATOM     20  C   UNL     1     -29.153 -13.030  18.275  0.00  0.00    +0.125 A 
BRANCH  20  21
ATOM     21  O   UNL     1     -28.355 -12.315  19.185  0.00  0.00    -0.491 OA
BRANCH  21  22
ATOM     22  C   UNL     1     -27.031 -12.662  19.587  0.00  0.00    +0.232 C 
BRANCH  22  23
ATOM     23  C   UNL     1     -27.040 -13.997  20.344  0.00  0.00    +0.027 C 
ATOM     24  C   UNL     1     -25.668 -14.447  20.825  0.00  0.00    +0.007 C 
ATOM     25  C   UNL     1     -26.691 -13.943  21.827  0.00  0.00    +0.007 C 
ENDBRANCH  22  23
ENDBRANCH  21  22
ENDBRANCH  20  21
ENDBRANCH  14  15
ENDBRANCH   3  14
TORSDOF 7
ENDMDL
MODEL 8
REMARK VINA RESULT:    -3.856      1.832      3.901
REMARK INTER + INTRA:          -7.845
REMARK INTER:                  -5.342
REMARK INTRA:                  -2.503
REMARK UNBOUND:                -2.410
REMARK  Name = 
REMARK  7 active torsions:
REMARK  status: ('A' for Active; 'I' for Inactive)
REMARK    1  A    between atoms: C_2  and  C_16
REMARK    2  A    between atoms: N_3  and  C_4
REMARK    3  A    between atoms: C_4  and  C_5
REMARK    4  A    between atoms: C_10  and  O_11
REMARK    5  A    between atoms: O_11  and  C_12
REMARK    6  A    between atoms: C_12  and  C_13
REMARK    7  A    between atoms: C_18  and  C_19
REMARK                            x       y       z     vdW  Elec       q    Type
REMARK                         _______ _______ _______ _____ _____    ______ ____
ROOT
ATOM      1  O   UNL     1     -29.742  -9.886  19.276  0.00  0.00    -0.275 OA
ATOM      2  C   UNL     1     -29.186 -10.406  18.273  0.00  0.00    +0.217 C 
ATOM      3  N   UNL     1     -29.691 -10.151  16.955  0.00  0.00    -0.311 N 
ATOM      4  H   UNL     1     -29.168 -10.530  16.133  0.00  0.00    +0.149 HD
ENDROOT
BRANCH   2   5
ATOM      5  C   UNL     1     -27.962 -11.270  18.443  0.00  0.00    +0.083 C 
ATOM      6  C   UNL     1     -28.015 -12.270  19.592  0.00  0.00    +0.022 C 
ATOM      7  C   UNL     1     -28.108 -12.771  18.152  0.00  0.00    +0.033 C 
BRANCH   7   8
ATOM      8  C   UNL     1     -29.464 -13.275  17.717  0.00  0.00    -0.025 A 
ATOM      9  C   UNL     1     -30.559 -13.283  18.596  0.00  0.00    +0.007 A 
ATOM     10  C   UNL     1     -31.789 -13.794  18.176  0.00  0.00    +0.020 A 
ATOM     11  C   UNL     1     -31.907 -14.321  16.888  0.00  0.00    +0.111 A 
ATOM     12  N   UNL     1     -30.828 -14.346  16.063  0.00  0.00    -0.263 NA
ATOM     13  C   UNL     1     -29.621 -13.852  16.448  0.00  0.00    +0.114 A 
ENDBRANCH   7   8
ENDBRANCH   2   5
BRANCH   3  14
ATOM     14  C   UNL     1     -30.944  -9.440  16.716  0.00  0.00    +0.143 C 
BRANCH  14  15
ATOM     15  C   UNL     1     -31.919 -10.325  15.977  0.00  0.00    +0.011 A 
ATOM     16  C   UNL     1     -31.500 -10.959  14.796  0.00  0.00    +0.009 A 
ATOM     17  C   UNL     1     -32.383 -11.759  14.069  0.00  0.00    +0.001 A 
ATOM     18  C   UNL     1     -33.696 -11.925  14.506  0.00  0.00    +0.004 A 
ATOM     19  C   UNL     1     -34.130 -11.299  15.678  0.00  0.00    +0.046 A 
ATOM     20  C   UNL     1     -33.247 -10.500  16.431  0.00  0.00    +0.125 A 
BRANCH  20  21
ATOM     21  O   UNL     1     -33.650  -9.862  17.617  0.00  0.00    -0.491 OA
BRANCH  21  22
ATOM     22  C   UNL     1     -34.042 -10.513  18.824  0.00  0.00    +0.232 C 
BRANCH  22  23
ATOM     23  C   UNL     1     -33.169 -10.035  19.993  0.00  0.00    +0.027 C 
ATOM     24  C   UNL     1     -33.811 -10.216  21.361  0.00  0.00    +0.007 C 
ATOM     25  C   UNL     1     -32.656 -11.108  20.945  0.00  0.00    +0.007 C 
ENDBRANCH  22  23
ENDBRANCH  21  22
ENDBRANCH  20  21
ENDBRANCH  14  15
ENDBRANCH   3  14
TORSDOF 7
ENDMDL
MODEL 9
REMARK VINA RESULT:    -3.777      1.901      4.606
REMARK INTER + INTRA:          -7.732
REMARK INTER:                  -6.161
REMARK INTRA:                  -1.572
REMARK UNBOUND:                -2.410
REMARK  Name = 
REMARK  7 active torsions:
REMARK  status: ('A' for Active; 'I' for Inactive)
REMARK    1  A    between atoms: C_2  and  C_16
REMARK    2  A    between atoms: N_3  and  C_4
REMARK    3  A    between atoms: C_4  and  C_5
REMARK    4  A    between atoms: C_10  and  O_11
REMARK    5  A    between atoms: O_11  and  C_12
REMARK    6  A    between atoms: C_12  and  C_13
REMARK    7  A    between atoms: C_18  and  C_19
REMARK                            x       y       z     vdW  Elec       q    Type
REMARK                         _______ _______ _______ _____ _____    ______ ____
ROOT
ATOM      1  O   UNL     1     -32.609 -12.413  19.739  0.00  0.00    -0.275 OA
ATOM      2  C   UNL     1     -32.266 -11.645  18.801  0.00  0.00    +0.217 C 
ATOM      3  N   UNL     1     -31.998 -12.174  17.495  0.00  0.00    -0.311 N 
ATOM      4  H   UNL     1     -31.791 -11.510  16.715  0.00  0.00    +0.149 HD
ENDROOT
BRANCH   2   5
ATOM      5  C   UNL     1     -32.172 -10.158  19.031  0.00  0.00    +0.083 C 
ATOM      6  C   UNL     1     -31.784  -9.732  20.443  0.00  0.00    +0.022 C 
ATOM      7  C   UNL     1     -30.779  -9.570  19.304  0.00  0.00    +0.033 C 
BRANCH   7   8
ATOM      8  C   UNL     1     -29.605 -10.520  19.322  0.00  0.00    -0.025 A 
ATOM      9  C   UNL     1     -28.837 -10.758  18.170  0.00  0.00    +0.007 A 
ATOM     10  C   UNL     1     -27.783 -11.673  18.209  0.00  0.00    +0.020 A 
ATOM     11  C   UNL     1     -27.523 -12.367  19.393  0.00  0.00    +0.111 A 
ATOM     12  N   UNL     1     -28.301 -12.160  20.487  0.00  0.00    -0.263 NA
ATOM     13  C   UNL     1     -29.331 -11.272  20.475  0.00  0.00    +0.114 A 
ENDBRANCH   7   8
ENDBRANCH   2   5
BRANCH   3  14
ATOM     14  C   UNL     1     -31.936 -13.608  17.224  0.00  0.00    +0.143 C 
BRANCH  14  15
ATOM     15  C   UNL     1     -31.105 -13.876  15.993  0.00  0.00    +0.011 A 
ATOM     16  C   UNL     1     -29.868 -14.525  16.136  0.00  0.00    +0.009 A 
ATOM     17  C   UNL     1     -29.059 -14.760  15.024  0.00  0.00    +0.001 A 
ATOM     18  C   UNL     1     -29.468 -14.339  13.760  0.00  0.00    +0.004 A 
ATOM     19  C   UNL     1     -30.695 -13.688  13.600  0.00  0.00    +0.046 A 
ATOM     20  C   UNL     1     -31.531 -13.456  14.711  0.00  0.00    +0.125 A 
BRANCH  20  21
ATOM     21  O   UNL     1     -32.774 -12.811  14.584  0.00  0.00    -0.491 OA
BRANCH  21  22
ATOM     22  C   UNL     1     -32.981 -11.492  14.081  0.00  0.00    +0.232 C 
BRANCH  22  23
ATOM     23  C   UNL     1     -34.086 -10.788  14.880  0.00  0.00    +0.027 C 
ATOM     24  C   UNL     1     -33.642  -9.492  15.544  0.00  0.00    +0.007 C 
ATOM     25  C   UNL     1     -34.568  -9.446  14.343  0.00  0.00    +0.007 C 
ENDBRANCH  22  23
ENDBRANCH  21  22
ENDBRANCH  20  21
ENDBRANCH  14  15
ENDBRANCH   3  14
TORSDOF 7
ENDMDL
