MODEL 1
REMARK VINA RESULT:    -4.952      0.000      0.000
REMARK INTER + INTRA:          -6.435
REMARK INTER:                  -6.110
REMARK INTRA:                  -0.326
REMARK UNBOUND:                -0.326
REMARK  Name = 
REMARK  4 active torsions:
REMARK  status: ('A' for Active; 'I' for Inactive)
REMARK    1  A    between atoms: C_2  and  C_3
REMARK    2  A    between atoms: N_13  and  C_14
REMARK    3  A    between atoms: C_14  and  C_15
REMARK    4  A    between atoms: C_19  and  N_21
REMARK                            x       y       z     vdW  Elec       q    Type
REMARK                         _______ _______ _______ _____ _____    ______ ____
ROOT
ATOM      1  C   UNL     1     -27.277 -13.118  20.166  0.00  0.00    +0.052 A 
ATOM      2  C   UNL     1     -28.434 -13.635  20.763  0.00  0.00    +0.021 A 
ATOM      3  C   UNL     1     -29.697 -13.217  20.331  0.00  0.00    +0.029 A 
ATOM      4  C   UNL     1     -29.809 -12.280  19.299  0.00  0.00    +0.073 A 
ATOM      5  N   UNL     1     -31.036 -11.871  18.878  0.00  0.00    -0.232 NA
ATOM      6  C   UNL     1     -31.196 -10.959  17.879  0.00  0.00    +0.120 A 
ATOM      7  C   UNL     1     -30.058 -10.423  17.249  0.00  0.00    +0.044 A 
ATOM      8  C   UNL     1     -28.785 -10.822  17.661  0.00  0.00    +0.013 A 
ATOM      9  C   UNL     1     -28.647 -11.757  18.693  0.00  0.00    +0.002 A 
ATOM     10  C   UNL     1     -27.383 -12.179  19.131  0.00  0.00    +0.029 A 
ATOM     11  N   UNL     1     -32.530 -10.579  17.497  0.00  0.00    -0.325 N 
ATOM     12  H   UNL     1     -33.328 -11.086  17.942  0.00  0.00    +0.148 HD
ENDROOT
BRANCH   1  14
ATOM     13  N   UNL     1     -24.938 -13.900  20.976  0.00  0.00    -0.191 NA
ATOM     14  C   UNL     1     -25.980 -13.551  20.615  0.00  0.00    +0.099 C 
ENDBRANCH   1  14
BRANCH  11  15
ATOM     15  C   UNL     1     -32.852  -9.492  16.571  0.00  0.00    +0.138 C 
BRANCH  15  16
ATOM     16  C   UNL     1     -33.471 -10.034  15.309  0.00  0.00    -0.028 A 
ATOM     17  C   UNL     1     -34.496  -9.329  14.659  0.00  0.00    +0.005 A 
ATOM     18  C   UNL     1     -35.062  -9.833  13.487  0.00  0.00    +0.003 A 
ATOM     19  C   UNL     1     -34.607 -11.038  12.948  0.00  0.00    +0.033 A 
ATOM     20  C   UNL     1     -33.573 -11.754  13.574  0.00  0.00    +0.127 A 
ATOM     21  C   UNL     1     -33.007 -11.239  14.757  0.00  0.00    +0.038 A 
BRANCH  20  22
ATOM     22  N   UNL     1     -33.103 -12.993  13.014  0.00  0.00    +0.056 N 
ATOM     23  O   UNL     1     -33.834 -13.646  12.049  0.00  0.00    -0.126 OA
ATOM     24  O   UNL     1     -32.026 -13.498  13.396  0.00  0.00    -0.126 OA
ENDBRANCH  20  22
ENDBRANCH  15  16
ENDBRANCH  11  15
TORSDOF 4
ENDMDL
MODEL 2
REMARK VINA RESULT:    -4.245      3.121      3.733
REMARK INTER + INTRA:          -5.563
REMARK INTER:                  -5.173
REMARK INTRA:                  -0.391
REMARK UNBOUND:                -0.326
REMARK  Name = 
REMARK  4 active torsions:
REMARK  status: ('A' for Active; 'I' for Inactive)
REMARK    1  A    between atoms: C_2  and  C_3
REMARK    2  A    between atoms: N_13  and  C_14
REMARK    3  A    between atoms: C_14  and  C_15
REMARK    4  A    between atoms: C_19  and  N_21
REMARK                            x       y       z     vdW  Elec       q    Type
REMARK                         _______ _______ _______ _____ _____    ______ ____
ROOT
ATOM      1  C   UNL     1     -27.416 -13.373  20.251  0.00  0.00    +0.052 A 
ATOM      2  C   UNL     1     -28.425 -13.371  21.223  0.00  0.00    +0.021 A 
ATOM      3  C   UNL     1     -29.761 -13.192  20.850  0.00  0.00    +0.029 A 
ATOM      4  C   UNL     1     -30.095 -13.014  19.504  0.00  0.00    +0.073 A 
ATOM      5  N   UNL     1     -31.393 -12.837  19.139  0.00  0.00    -0.232 NA
ATOM      6  C   UNL     1     -31.767 -12.657  17.841  0.00  0.00    +0.120 A 
ATOM      7  C   UNL     1     -30.783 -12.661  16.836  0.00  0.00    +0.044 A 
ATOM      8  C   UNL     1     -29.441 -12.837  17.180  0.00  0.00    +0.013 A 
ATOM      9  C   UNL     1     -29.082 -13.016  18.521  0.00  0.00    +0.002 A 
ATOM     10  C   UNL     1     -27.743 -13.196  18.900  0.00  0.00    +0.029 A 
ATOM     11  N   UNL     1     -33.162 -12.475  17.543  0.00  0.00    -0.325 N 
ATOM     12  H   UNL     1     -33.846 -12.577  18.326  0.00  0.00    +0.148 HD
ENDROOT
BRANCH   1  14
ATOM     13  N   UNL     1     -24.939 -13.706  20.954  0.00  0.00    -0.191 NA
ATOM     14  C   UNL     1     -26.042 -13.558  20.640  0.00  0.00    +0.099 C 
ENDBRANCH   1  14
BRANCH  11  15
ATOM     15  C   UNL     1     -33.690 -12.099  16.230  0.00  0.00    +0.138 C 
BRANCH  15  16
ATOM     16  C   UNL     1     -34.058 -10.638  16.203  0.00  0.00    -0.028 A 
ATOM     17  C   UNL     1     -34.311  -9.990  14.984  0.00  0.00    +0.005 A 
ATOM     18  C   UNL     1     -34.657  -8.638  14.965  0.00  0.00    +0.003 A 
ATOM     19  C   UNL     1     -34.762  -7.922  16.160  0.00  0.00    +0.033 A 
ATOM     20  C   UNL     1     -34.526  -8.554  17.392  0.00  0.00    +0.127 A 
ATOM     21  C   UNL     1     -34.177  -9.919  17.403  0.00  0.00    +0.038 A 
BRANCH  20  22
ATOM     22  N   UNL     1     -34.639  -7.815  18.622  0.00  0.00    +0.056 N 
ATOM     23  O   UNL     1     -35.062  -6.506  18.615  0.00  0.00    -0.126 OA
ATOM     24  O   UNL     1     -34.353  -8.348  19.715  0.00  0.00    -0.126 OA
ENDBRANCH  20  22
ENDBRANCH  15  16
ENDBRANCH  11  15
TORSDOF 4
ENDMDL
MODEL 3
REMARK VINA RESULT:    -4.177      4.662      6.213
REMARK INTER + INTRA:          -5.479
REMARK INTER:                  -5.203
REMARK INTRA:                  -0.276
REMARK UNBOUND:                -0.326
REMARK  Name = 
REMARK  4 active torsions:
REMARK  status: ('A' for Active; 'I' for Inactive)
REMARK    1  A    between atoms: C_2  and  C_3
REMARK    2  A    between atoms: N_13  and  C_14
REMARK    3  A    between atoms: C_14  and  C_15
REMARK    4  A    between atoms: C_19  and  N_21
REMARK                            x       y       z     vdW  Elec       q    Type
REMARK                         _______ _______ _______ _____ _____    ______ ____
ROOT
ATOM      1  C   UNL     1     -29.840 -14.183  13.750  0.00  0.00    +0.052 A 
ATOM      2  C   UNL     1     -29.867 -14.778  15.019  0.00  0.00    +0.021 A 
ATOM      3  C   UNL     1     -30.747 -14.309  15.999  0.00  0.00    +0.029 A 
ATOM      4  C   UNL     1     -31.605 -13.241  15.717  0.00  0.00    +0.073 A 
ATOM      5  N   UNL     1     -32.460 -12.782  16.669  0.00  0.00    -0.232 NA
ATOM      6  C   UNL     1     -33.312 -11.744  16.442  0.00  0.00    +0.120 A 
ATOM      7  C   UNL     1     -33.320 -11.125  15.179  0.00  0.00    +0.044 A 
ATOM      8  C   UNL     1     -32.452 -11.573  14.182  0.00  0.00    +0.013 A 
ATOM      9  C   UNL     1     -31.582 -12.638  14.441  0.00  0.00    +0.002 A 
ATOM     10  C   UNL     1     -30.698 -13.113  13.461  0.00  0.00    +0.029 A 
ATOM     11  N   UNL     1     -34.182 -11.318  17.506  0.00  0.00    -0.325 N 
ATOM     12  H   UNL     1     -34.189 -11.883  18.386  0.00  0.00    +0.148 HD
ENDROOT
BRANCH   1  14
ATOM     13  N   UNL     1     -28.203 -15.062  11.938  0.00  0.00    -0.191 NA
ATOM     14  C   UNL     1     -28.932 -14.671  12.745  0.00  0.00    +0.099 C 
ENDBRANCH   1  14
BRANCH  11  15
ATOM     15  C   UNL     1     -35.017 -10.117  17.468  0.00  0.00    +0.138 C 
BRANCH  15  16
ATOM     16  C   UNL     1     -34.328  -8.967  18.154  0.00  0.00    -0.028 A 
ATOM     17  C   UNL     1     -34.929  -7.699  18.198  0.00  0.00    +0.005 A 
ATOM     18  C   UNL     1     -34.288  -6.639  18.840  0.00  0.00    +0.003 A 
ATOM     19  C   UNL     1     -33.047  -6.833  19.451  0.00  0.00    +0.033 A 
ATOM     20  C   UNL     1     -32.433  -8.097  19.431  0.00  0.00    +0.127 A 
ATOM     21  C   UNL     1     -33.086  -9.162  18.781  0.00  0.00    +0.038 A 
BRANCH  20  22
ATOM     22  N   UNL     1     -31.157  -8.296  20.065  0.00  0.00    +0.056 N 
ATOM     23  O   UNL     1     -31.003  -8.070  21.414  0.00  0.00    -0.126 OA
ATOM     24  O   UNL     1     -30.167  -8.673  19.404  0.00  0.00    -0.126 OA
ENDBRANCH  20  22
ENDBRANCH  15  16
ENDBRANCH  11  15
TORSDOF 4
ENDMDL
MODEL 4
REMARK VINA RESULT:    -3.975      2.763      3.405
REMARK INTER + INTRA:          -5.230
REMARK INTER:                  -4.952
REMARK INTRA:                  -0.278
REMARK UNBOUND:                -0.326
REMARK  Name = 
REMARK  4 active torsions:
REMARK  status: ('A' for Active; 'I' for Inactive)
REMARK    1  A    between atoms: C_2  and  C_3
REMARK    2  A    between atoms: N_13  and  C_14
REMARK    3  A    between atoms: C_14  and  C_15
REMARK    4  A    between atoms: C_19  and  N_21
REMARK                            x       y       z     vdW  Elec       q    Type
REMARK                         _______ _______ _______ _____ _____    ______ ____
ROOT
ATOM      1  C   UNL     1     -26.989 -13.310  20.298  0.00  0.00    +0.052 A 
ATOM      2  C   UNL     1     -26.530 -12.337  19.400  0.00  0.00    +0.021 A 
ATOM      3  C   UNL     1     -27.408 -11.760  18.477  0.00  0.00    +0.029 A 
ATOM      4  C   UNL     1     -28.750 -12.153  18.447  0.00  0.00    +0.073 A 
ATOM      5  N   UNL     1     -29.606 -11.595  17.549  0.00  0.00    -0.232 NA
ATOM      6  C   UNL     1     -30.920 -11.947  17.480  0.00  0.00    +0.120 A 
ATOM      7  C   UNL     1     -31.420 -12.914  18.370  0.00  0.00    +0.044 A 
ATOM      8  C   UNL     1     -30.565 -13.506  19.302  0.00  0.00    +0.013 A 
ATOM      9  C   UNL     1     -29.218 -13.131  19.350  0.00  0.00    +0.002 A 
ATOM     10  C   UNL     1     -28.333 -13.707  20.274  0.00  0.00    +0.029 A 
ATOM     11  N   UNL     1     -31.755 -11.309  16.497  0.00  0.00    -0.325 N 
ATOM     12  H   UNL     1     -31.339 -10.534  15.933  0.00  0.00    +0.148 HD
ENDROOT
BRANCH   1  14
ATOM     13  N   UNL     1     -25.351 -14.373  22.008  0.00  0.00    -0.191 NA
ATOM     14  C   UNL     1     -26.081 -13.900  21.247  0.00  0.00    +0.099 C 
ENDBRANCH   1  14
BRANCH  11  15
ATOM     15  C   UNL     1     -33.130 -11.706  16.190  0.00  0.00    +0.138 C 
BRANCH  15  16
ATOM     16  C   UNL     1     -33.799 -10.677  15.317  0.00  0.00    -0.028 A 
ATOM     17  C   UNL     1     -34.310 -11.033  14.060  0.00  0.00    +0.005 A 
ATOM     18  C   UNL     1     -34.934 -10.077  13.257  0.00  0.00    +0.003 A 
ATOM     19  C   UNL     1     -35.062  -8.760  13.704  0.00  0.00    +0.033 A 
ATOM     20  C   UNL     1     -34.570  -8.384  14.965  0.00  0.00    +0.127 A 
ATOM     21  C   UNL     1     -33.941  -9.355  15.769  0.00  0.00    +0.038 A 
BRANCH  20  22
ATOM     22  N   UNL     1     -34.708  -7.027  15.426  0.00  0.00    +0.056 N 
ATOM     23  O   UNL     1     -34.725  -5.983  14.530  0.00  0.00    -0.126 OA
ATOM     24  O   UNL     1     -34.811  -6.774  16.644  0.00  0.00    -0.126 OA
ENDBRANCH  20  22
ENDBRANCH  15  16
ENDBRANCH  11  15
TORSDOF 4
ENDMDL
MODEL 5
REMARK VINA RESULT:    -3.857      3.435      5.285
REMARK INTER + INTRA:          -5.084
REMARK INTER:                  -4.680
REMARK INTRA:                  -0.405
REMARK UNBOUND:                -0.326
REMARK  Name = 
REMARK  4 active torsions:
REMARK  status: ('A' for Active; 'I' for Inactive)
REMARK    1  A    between atoms: C_2  and  C_3
REMARK    2  A    between atoms: N_13  and  C_14
REMARK    3  A    between atoms: C_14  and  C_15
REMARK    4  A    between atoms: C_19  and  N_21
REMARK                            x       y       z     vdW  Elec       q    Type
REMARK                         _______ _______ _______ _____ _____    ______ ____
ROOT
ATOM      1  C   UNL     1     -31.608  -7.500  20.198  0.00  0.00    +0.052 A 
ATOM      2  C   UNL     1     -32.844  -7.764  19.593  0.00  0.00    +0.021 A 
ATOM      3  C   UNL     1     -33.057  -8.975  18.927  0.00  0.00    +0.029 A 
ATOM      4  C   UNL     1     -32.036  -9.928  18.861  0.00  0.00    +0.073 A 
ATOM      5  N   UNL     1     -32.240 -11.105  18.212  0.00  0.00    -0.232 NA
ATOM      6  C   UNL     1     -31.276 -12.062  18.119  0.00  0.00    +0.120 A 
ATOM      7  C   UNL     1     -30.025 -11.837  18.720  0.00  0.00    +0.044 A 
ATOM      8  C   UNL     1     -29.784 -10.637  19.392  0.00  0.00    +0.013 A 
ATOM      9  C   UNL     1     -30.790  -9.667  19.469  0.00  0.00    +0.002 A 
ATOM     10  C   UNL     1     -30.580  -8.451  20.137  0.00  0.00    +0.029 A 
ATOM     11  N   UNL     1     -31.575 -13.278  17.411  0.00  0.00    -0.325 N 
ATOM     12  H   UNL     1     -32.553 -13.417  17.071  0.00  0.00    +0.148 HD
ENDROOT
BRANCH   1  14
ATOM     13  N   UNL     1     -31.222  -5.249  21.434  0.00  0.00    -0.191 NA
ATOM     14  C   UNL     1     -31.394  -6.252  20.884  0.00  0.00    +0.099 C 
ENDBRANCH   1  14
BRANCH  11  15
ATOM     15  C   UNL     1     -30.592 -14.312  17.081  0.00  0.00    +0.138 C 
BRANCH  15  16
ATOM     16  C   UNL     1     -30.308 -14.323  15.602  0.00  0.00    -0.028 A 
ATOM     17  C   UNL     1     -29.126 -14.897  15.108  0.00  0.00    +0.005 A 
ATOM     18  C   UNL     1     -28.870 -14.908  13.736  0.00  0.00    +0.003 A 
ATOM     19  C   UNL     1     -29.791 -14.357  12.844  0.00  0.00    +0.033 A 
ATOM     20  C   UNL     1     -30.987 -13.789  13.314  0.00  0.00    +0.127 A 
ATOM     21  C   UNL     1     -31.239 -13.781  14.700  0.00  0.00    +0.038 A 
BRANCH  20  22
ATOM     22  N   UNL     1     -31.938 -13.226  12.393  0.00  0.00    +0.056 N 
ATOM     23  O   UNL     1     -33.038 -13.949  11.993  0.00  0.00    -0.126 OA
ATOM     24  O   UNL     1     -31.780 -12.073  11.938  0.00  0.00    -0.126 OA
ENDBRANCH  20  22
ENDBRANCH  15  16
ENDBRANCH  11  15
TORSDOF 4
ENDMDL
MODEL 6
REMARK VINA RESULT:    -3.786      2.900      8.144
REMARK INTER + INTRA:          -4.997
REMARK INTER:                  -4.744
REMARK INTRA:                  -0.253
REMARK UNBOUND:                -0.326
REMARK  Name = 
REMARK  4 active torsions:
REMARK  status: ('A' for Active; 'I' for Inactive)
REMARK    1  A    between atoms: C_2  and  C_3
REMARK    2  A    between atoms: N_13  and  C_14
REMARK    3  A    between atoms: C_14  and  C_15
REMARK    4  A    between atoms: C_19  and  N_21
REMARK                            x       y       z     vdW  Elec       q    Type
REMARK                         _______ _______ _______ _____ _____    ______ ____
ROOT
ATOM      1  C   UNL     1     -33.919 -10.920  14.307  0.00  0.00    +0.052 A 
ATOM      2  C   UNL     1     -33.739  -9.663  14.900  0.00  0.00    +0.021 A 
ATOM      3  C   UNL     1     -33.123  -9.558  16.151  0.00  0.00    +0.029 A 
ATOM      4  C   UNL     1     -32.685 -10.707  16.816  0.00  0.00    +0.073 A 
ATOM      5  N   UNL     1     -32.088 -10.607  18.034  0.00  0.00    -0.232 NA
ATOM      6  C   UNL     1     -31.647 -11.698  18.720  0.00  0.00    +0.120 A 
ATOM      7  C   UNL     1     -31.803 -12.976  18.154  0.00  0.00    +0.044 A 
ATOM      8  C   UNL     1     -32.415 -13.111  16.906  0.00  0.00    +0.013 A 
ATOM      9  C   UNL     1     -32.864 -11.975  16.222  0.00  0.00    +0.002 A 
ATOM     10  C   UNL     1     -33.482 -12.076  14.967  0.00  0.00    +0.029 A 
ATOM     11  N   UNL     1     -31.029 -11.503  20.004  0.00  0.00    -0.325 N 
ATOM     12  H   UNL     1     -30.862 -10.522  20.321  0.00  0.00    +0.148 HD
ENDROOT
BRANCH   1  14
ATOM     13  N   UNL     1     -35.062 -11.105  11.983  0.00  0.00    -0.191 NA
ATOM     14  C   UNL     1     -34.553 -11.023  13.018  0.00  0.00    +0.099 C 
ENDBRANCH   1  14
BRANCH  11  15
ATOM     15  C   UNL     1     -30.670 -12.581  20.927  0.00  0.00    +0.138 C 
BRANCH  15  16
ATOM     16  C   UNL     1     -29.216 -12.948  20.777  0.00  0.00    -0.028 A 
ATOM     17  C   UNL     1     -28.682 -14.043  21.474  0.00  0.00    +0.005 A 
ATOM     18  C   UNL     1     -27.336 -14.380  21.328  0.00  0.00    +0.003 A 
ATOM     19  C   UNL     1     -26.513 -13.638  20.479  0.00  0.00    +0.033 A 
ATOM     20  C   UNL     1     -27.029 -12.546  19.761  0.00  0.00    +0.127 A 
ATOM     21  C   UNL     1     -28.388 -12.210  19.914  0.00  0.00    +0.038 A 
BRANCH  20  22
ATOM     22  N   UNL     1     -26.180 -11.784  18.884  0.00  0.00    +0.056 N 
ATOM     23  O   UNL     1     -26.719 -11.046  17.856  0.00  0.00    -0.126 OA
ATOM     24  O   UNL     1     -24.940 -11.782  19.038  0.00  0.00    -0.126 OA
ENDBRANCH  20  22
ENDBRANCH  15  16
ENDBRANCH  11  15
TORSDOF 4
ENDMDL
MODEL 7
REMARK VINA RESULT:    -3.751      4.716      7.035
REMARK INTER + INTRA:          -4.954
REMARK INTER:                  -4.565
REMARK INTRA:                  -0.389
REMARK UNBOUND:                -0.326
REMARK  Name = 
REMARK  4 active torsions:
REMARK  status: ('A' for Active; 'I' for Inactive)
REMARK    1  A    between atoms: C_2  and  C_3
REMARK    2  A    between atoms: N_13  and  C_14
REMARK    3  A    between atoms: C_14  and  C_15
REMARK    4  A    between atoms: C_19  and  N_21
REMARK                            x       y       z     vdW  Elec       q    Type
REMARK                         _______ _______ _______ _____ _____    ______ ____
ROOT
ATOM      1  C   UNL     1     -30.089 -13.981  13.696  0.00  0.00    +0.052 A 
ATOM      2  C   UNL     1     -31.295 -13.396  13.289  0.00  0.00    +0.021 A 
ATOM      3  C   UNL     1     -32.148 -12.811  14.230  0.00  0.00    +0.029 A 
ATOM      4  C   UNL     1     -31.800 -12.808  15.585  0.00  0.00    +0.073 A 
ATOM      5  N   UNL     1     -32.628 -12.243  16.502  0.00  0.00    -0.232 NA
ATOM      6  C   UNL     1     -32.334 -12.218  17.832  0.00  0.00    +0.120 A 
ATOM      7  C   UNL     1     -31.128 -12.789  18.279  0.00  0.00    +0.044 A 
ATOM      8  C   UNL     1     -30.258 -13.379  17.361  0.00  0.00    +0.013 A 
ATOM      9  C   UNL     1     -30.586 -13.396  16.000  0.00  0.00    +0.002 A 
ATOM     10  C   UNL     1     -29.733 -13.981  15.052  0.00  0.00    +0.029 A 
ATOM     11  N   UNL     1     -33.268 -11.602  18.735  0.00  0.00    -0.325 N 
ATOM     12  H   UNL     1     -34.097 -11.116  18.324  0.00  0.00    +0.148 HD
ENDROOT
BRANCH   1  14
ATOM     13  N   UNL     1     -28.513 -15.062  11.940  0.00  0.00    -0.191 NA
ATOM     14  C   UNL     1     -29.214 -14.581  12.722  0.00  0.00    +0.099 C 
ENDBRANCH   1  14
BRANCH  11  15
ATOM     15  C   UNL     1     -33.172 -11.655  20.195  0.00  0.00    +0.138 C 
BRANCH  15  16
ATOM     16  C   UNL     1     -33.199 -10.268  20.782  0.00  0.00    -0.028 A 
ATOM     17  C   UNL     1     -34.310  -9.827  21.517  0.00  0.00    +0.005 A 
ATOM     18  C   UNL     1     -34.328  -8.542  22.062  0.00  0.00    +0.003 A 
ATOM     19  C   UNL     1     -33.236  -7.689  21.888  0.00  0.00    +0.033 A 
ATOM     20  C   UNL     1     -32.108  -8.114  21.167  0.00  0.00    +0.127 A 
ATOM     21  C   UNL     1     -32.097  -9.412  20.619  0.00  0.00    +0.038 A 
BRANCH  20  22
ATOM     22  N   UNL     1     -30.982  -7.235  20.992  0.00  0.00    +0.056 N 
ATOM     23  O   UNL     1     -30.817  -6.139  21.808  0.00  0.00    -0.126 OA
ATOM     24  O   UNL     1     -30.138  -7.449  20.097  0.00  0.00    -0.126 OA
ENDBRANCH  20  22
ENDBRANCH  15  16
ENDBRANCH  11  15
TORSDOF 4
ENDMDL
MODEL 8
REMARK VINA RESULT:    -3.598      4.319      6.464
REMARK INTER + INTRA:          -4.766
REMARK INTER:                  -4.347
REMARK INTRA:                  -0.419
REMARK UNBOUND:                -0.326
REMARK  Name = 
REMARK  4 active torsions:
REMARK  status: ('A' for Active; 'I' for Inactive)
REMARK    1  A    between atoms: C_2  and  C_3
REMARK    2  A    between atoms: N_13  and  C_14
REMARK    3  A    between atoms: C_14  and  C_15
REMARK    4  A    between atoms: C_19  and  N_21
REMARK                            x       y       z     vdW  Elec       q    Type
REMARK                         _______ _______ _______ _____ _____    ______ ____
ROOT
ATOM      1  C   UNL     1     -29.995 -14.226  14.385  0.00  0.00    +0.052 A 
ATOM      2  C   UNL     1     -29.054 -14.506  15.385  0.00  0.00    +0.021 A 
ATOM      3  C   UNL     1     -29.291 -14.109  16.705  0.00  0.00    +0.029 A 
ATOM      4  C   UNL     1     -30.469 -13.431  17.032  0.00  0.00    +0.073 A 
ATOM      5  N   UNL     1     -30.700 -13.042  18.315  0.00  0.00    -0.232 NA
ATOM      6  C   UNL     1     -31.831 -12.377  18.681  0.00  0.00    +0.120 A 
ATOM      7  C   UNL     1     -32.802 -12.084  17.707  0.00  0.00    +0.044 A 
ATOM      8  C   UNL     1     -32.592 -12.469  16.381  0.00  0.00    +0.013 A 
ATOM      9  C   UNL     1     -31.420 -13.147  16.029  0.00  0.00    +0.002 A 
ATOM     10  C   UNL     1     -31.178 -13.547  14.706  0.00  0.00    +0.029 A 
ATOM     11  N   UNL     1     -31.994 -11.999  20.059  0.00  0.00    -0.325 N 
ATOM     12  H   UNL     1     -31.278 -12.330  20.744  0.00  0.00    +0.148 HD
ENDROOT
BRANCH   1  14
ATOM     13  N   UNL     1     -29.547 -14.968  11.938  0.00  0.00    -0.191 NA
ATOM     14  C   UNL     1     -29.746 -14.637  13.028  0.00  0.00    +0.099 C 
ENDBRANCH   1  14
BRANCH  11  15
ATOM     15  C   UNL     1     -33.063 -11.135  20.564  0.00  0.00    +0.138 C 
BRANCH  15  16
ATOM     16  C   UNL     1     -32.707  -9.684  20.378  0.00  0.00    -0.028 A 
ATOM     17  C   UNL     1     -31.429  -9.214  20.721  0.00  0.00    +0.005 A 
ATOM     18  C   UNL     1     -31.104  -7.869  20.541  0.00  0.00    +0.003 A 
ATOM     19  C   UNL     1     -32.043  -6.982  20.010  0.00  0.00    +0.033 A 
ATOM     20  C   UNL     1     -33.323  -7.433  19.647  0.00  0.00    +0.127 A 
ATOM     21  C   UNL     1     -33.645  -8.792  19.832  0.00  0.00    +0.038 A 
BRANCH  20  22
ATOM     22  N   UNL     1     -34.288  -6.519  19.096  0.00  0.00    +0.056 N 
ATOM     23  O   UNL     1     -34.649  -6.599  17.771  0.00  0.00    -0.126 OA
ATOM     24  O   UNL     1     -34.811  -5.636  19.808  0.00  0.00    -0.126 OA
ENDBRANCH  20  22
ENDBRANCH  15  16
ENDBRANCH  11  15
TORSDOF 4
ENDMDL
MODEL 9
REMARK VINA RESULT:    -3.406      4.149      5.274
REMARK INTER + INTRA:          -4.529
REMARK INTER:                  -4.785
REMARK INTRA:                   0.256
REMARK UNBOUND:                -0.326
REMARK  Name = 
REMARK  4 active torsions:
REMARK  status: ('A' for Active; 'I' for Inactive)
REMARK    1  A    between atoms: C_2  and  C_3
REMARK    2  A    between atoms: N_13  and  C_14
REMARK    3  A    between atoms: C_14  and  C_15
REMARK    4  A    between atoms: C_19  and  N_21
REMARK                            x       y       z     vdW  Elec       q    Type
REMARK                         _______ _______ _______ _____ _____    ______ ____
ROOT
ATOM      1  C   UNL     1     -32.228  -8.347  20.289  0.00  0.00    +0.052 A 
ATOM      2  C   UNL     1     -33.246  -9.253  20.616  0.00  0.00    +0.021 A 
ATOM      3  C   UNL     1     -33.703 -10.170  19.665  0.00  0.00    +0.029 A 
ATOM      4  C   UNL     1     -33.146 -10.188  18.382  0.00  0.00    +0.073 A 
ATOM      5  N   UNL     1     -33.590 -11.077  17.455  0.00  0.00    -0.232 NA
ATOM      6  C   UNL     1     -33.080 -11.130  16.193  0.00  0.00    +0.120 A 
ATOM      7  C   UNL     1     -32.052 -10.242  15.830  0.00  0.00    +0.044 A 
ATOM      8  C   UNL     1     -31.576  -9.315  16.760  0.00  0.00    +0.013 A 
ATOM      9  C   UNL     1     -32.120  -9.277  18.049  0.00  0.00    +0.002 A 
ATOM     10  C   UNL     1     -31.664  -8.359  19.006  0.00  0.00    +0.029 A 
ATOM     11  N   UNL     1     -33.610 -12.101  15.274  0.00  0.00    -0.325 N 
ATOM     12  H   UNL     1     -34.306 -12.789  15.639  0.00  0.00    +0.148 HD
ENDROOT
BRANCH   1  14
ATOM     13  N   UNL     1     -31.386  -6.648  22.062  0.00  0.00    -0.191 NA
ATOM     14  C   UNL     1     -31.761  -7.404  21.272  0.00  0.00    +0.099 C 
ENDBRANCH   1  14
BRANCH  11  15
ATOM     15  C   UNL     1     -33.288 -12.158  13.847  0.00  0.00    +0.138 C 
BRANCH  15  16
ATOM     16  C   UNL     1     -32.092 -13.041  13.606  0.00  0.00    -0.028 A 
ATOM     17  C   UNL     1     -31.823 -13.541  12.322  0.00  0.00    +0.005 A 
ATOM     18  C   UNL     1     -30.711 -14.356  12.104  0.00  0.00    +0.003 A 
ATOM     19  C   UNL     1     -29.852 -14.671  13.159  0.00  0.00    +0.033 A 
ATOM     20  C   UNL     1     -30.094 -14.170  14.449  0.00  0.00    +0.127 A 
ATOM     21  C   UNL     1     -31.219 -13.350  14.662  0.00  0.00    +0.038 A 
BRANCH  20  22
ATOM     22  N   UNL     1     -29.205 -14.493  15.534  0.00  0.00    +0.056 N 
ATOM     23  O   UNL     1     -29.691 -14.653  16.811  0.00  0.00    -0.126 OA
ATOM     24  O   UNL     1     -27.980 -14.631  15.336  0.00  0.00    -0.126 OA
ENDBRANCH  20  22
ENDBRANCH  15  16
ENDBRANCH  11  15
TORSDOF 4
ENDMDL
