MODEL 1
REMARK VINA RESULT:    -3.057      0.000      0.000
REMARK INTER + INTRA:          -4.945
REMARK INTER:                  -4.130
REMARK INTRA:                  -0.815
REMARK UNBOUND:                -0.815
REMARK  Name = 
REMARK  6 active torsions:
REMARK  status: ('A' for Active; 'I' for Inactive)
REMARK    1  A    between atoms: C_2  and  C_3
REMARK    2  A    between atoms: C_3  and  O_4
REMARK    3  A    between atoms: O_4  and  C_5
REMARK    4  A    between atoms: N_12  and  C_13
REMARK    5  A    between atoms: C_16  and  N_19
REMARK    6  A    between atoms: C_20  and  C_22
REMARK                            x       y       z     vdW  Elec       q    Type
REMARK                         _______ _______ _______ _____ _____    ______ ____
ROOT
ATOM      1  C   UNL     1     -32.718 -11.601  15.466  0.00  0.00    +0.034 A 
ATOM      2  C   UNL     1     -31.517 -10.880  15.523  0.00  0.00    +0.025 A 
ATOM      3  C   UNL     1     -31.278  -9.978  16.563  0.00  0.00    +0.025 A 
ATOM      4  C   UNL     1     -32.253  -9.759  17.552  0.00  0.00    +0.034 A 
ATOM      5  C   UNL     1     -33.454 -10.483  17.496  0.00  0.00    +0.025 A 
ATOM      6  C   UNL     1     -33.692 -11.385  16.456  0.00  0.00    +0.025 A 
ENDROOT
BRANCH   1   9
ATOM      7  O   UNL     1     -32.056 -11.165  12.668  0.00  0.00    -0.272 OA
ATOM      8  C   UNL     1     -32.418 -12.310  13.051  0.00  0.00    +0.255 C 
ATOM      9  N   UNL     1     -32.949 -12.502  14.370  0.00  0.00    -0.283 N 
ATOM     10  H   UNL     1     -33.570 -13.327  14.533  0.00  0.00    +0.155 HD
BRANCH   8  11
ATOM     11  C   UNL     1     -32.334 -13.463  12.096  0.00  0.00    +0.325 C 
BRANCH  11  12
ATOM     12  O   UNL     1     -31.678 -14.572  12.709  0.00  0.00    -0.481 OA
BRANCH  12  13
ATOM     13  C   UNL     1     -30.304 -14.643  13.002  0.00  0.00    +0.139 A 
ATOM     14  C   UNL     1     -29.315 -14.579  11.999  0.00  0.00    +0.047 A 
ATOM     15  C   UNL     1     -27.961 -14.662  12.338  0.00  0.00    +0.004 A 
ATOM     16  C   UNL     1     -27.579 -14.803  13.674  0.00  0.00    +0.002 A 
ATOM     17  C   UNL     1     -28.551 -14.861  14.675  0.00  0.00    +0.023 A 
ATOM     18  C   UNL     1     -29.909 -14.780  14.344  0.00  0.00    +0.083 A 
ATOM     19 CL   UNL     1     -31.110 -14.860  15.623  0.00  0.00    -0.080 Cl
ENDBRANCH  12  13
ENDBRANCH  11  12
ENDBRANCH   8  11
ENDBRANCH   1   9
BRANCH   4  20
ATOM     20  N   UNL     1     -32.025  -8.857  18.647  0.00  0.00    -0.282 N 
ATOM     21  C   UNL     1     -32.819  -7.680  18.895  0.00  0.00    +0.248 C 
ATOM     22  O   UNL     1     -33.834  -7.445  18.184  0.00  0.00    -0.270 OA
ATOM     23  H   UNL     1     -31.267  -9.112  19.317  0.00  0.00    +0.155 HD
BRANCH  21  24
ATOM     24  C   UNL     1     -32.472  -6.734  19.983  0.00  0.00    +0.038 A 
ATOM     25  C   UNL     1     -33.484  -5.966  20.587  0.00  0.00    +0.013 A 
ATOM     26  C   UNL     1     -33.178  -5.071  21.616  0.00  0.00    +0.002 A 
ATOM     27  C   UNL     1     -31.861  -4.938  22.060  0.00  0.00    +0.020 A 
ATOM     28  C   UNL     1     -30.847  -5.706  21.480  0.00  0.00    +0.042 A 
ATOM     29 CL   UNL     1     -29.196  -5.552  22.054  0.00  0.00    -0.084 Cl
ATOM     30  C   UNL     1     -31.149  -6.602  20.448  0.00  0.00    +0.033 A 
ENDBRANCH  21  24
ENDBRANCH   4  20
TORSDOF 6
ENDMDL
MODEL 2
REMARK VINA RESULT:    -0.318      2.262      9.686
REMARK INTER + INTRA:          -1.245
REMARK INTER:                  -1.225
REMARK INTRA:                  -0.020
REMARK UNBOUND:                -0.815
REMARK  Name = 
REMARK  6 active torsions:
REMARK  status: ('A' for Active; 'I' for Inactive)
REMARK    1  A    between atoms: C_2  and  C_3
REMARK    2  A    between atoms: C_3  and  O_4
REMARK    3  A    between atoms: O_4  and  C_5
REMARK    4  A    between atoms: N_12  and  C_13
REMARK    5  A    between atoms: C_16  and  N_19
REMARK    6  A    between atoms: C_20  and  C_22
REMARK                            x       y       z     vdW  Elec       q    Type
REMARK                         _______ _______ _______ _____ _____    ______ ____
ROOT
ATOM      1  C   UNL     1     -33.525  -9.958  19.116  0.00  0.00    +0.034 A 
ATOM      2  C   UNL     1     -33.475  -9.243  17.911  0.00  0.00    +0.025 A 
ATOM      3  C   UNL     1     -32.846  -9.788  16.788  0.00  0.00    +0.025 A 
ATOM      4  C   UNL     1     -32.229 -11.048  16.860  0.00  0.00    +0.034 A 
ATOM      5  C   UNL     1     -32.283 -11.765  18.065  0.00  0.00    +0.025 A 
ATOM      6  C   UNL     1     -32.912 -11.220  19.188  0.00  0.00    +0.025 A 
ENDROOT
BRANCH   1   9
ATOM      7  O   UNL     1     -32.233  -8.451  21.241  0.00  0.00    -0.272 OA
ATOM      8  C   UNL     1     -33.491  -8.466  21.165  0.00  0.00    +0.255 C 
ATOM      9  N   UNL     1     -34.155  -9.364  20.263  0.00  0.00    -0.283 N 
ATOM     10  H   UNL     1     -35.144  -9.628  20.475  0.00  0.00    +0.155 HD
BRANCH   8  11
ATOM     11  C   UNL     1     -34.290  -7.570  22.062  0.00  0.00    +0.325 C 
BRANCH  11  12
ATOM     12  O   UNL     1     -34.788  -6.449  21.334  0.00  0.00    -0.481 OA
BRANCH  12  13
ATOM     13  C   UNL     1     -34.248  -5.955  20.133  0.00  0.00    +0.139 A 
ATOM     14  C   UNL     1     -34.970  -5.967  18.921  0.00  0.00    +0.047 A 
ATOM     15  C   UNL     1     -34.389  -5.473  17.749  0.00  0.00    +0.004 A 
ATOM     16  C   UNL     1     -33.091  -4.960  17.772  0.00  0.00    +0.002 A 
ATOM     17  C   UNL     1     -32.370  -4.939  18.967  0.00  0.00    +0.023 A 
ATOM     18  C   UNL     1     -32.944  -5.432  20.145  0.00  0.00    +0.083 A 
ATOM     19 CL   UNL     1     -32.012  -5.397  21.633  0.00  0.00    -0.080 Cl
ENDBRANCH  12  13
ENDBRANCH  11  12
ENDBRANCH   8  11
ENDBRANCH   1   9
BRANCH   4  20
ATOM     20  N   UNL     1     -31.597 -11.644  15.715  0.00  0.00    -0.282 N 
ATOM     21  C   UNL     1     -31.544 -13.063  15.475  0.00  0.00    +0.248 C 
ATOM     22  O   UNL     1     -32.154 -13.854  16.246  0.00  0.00    -0.270 OA
ATOM     23  H   UNL     1     -31.201 -10.991  15.003  0.00  0.00    +0.155 HD
BRANCH  21  24
ATOM     24  C   UNL     1     -30.791 -13.622  14.326  0.00  0.00    +0.038 A 
ATOM     25  C   UNL     1     -31.418 -13.736  13.072  0.00  0.00    +0.013 A 
ATOM     26  C   UNL     1     -30.724 -14.257  11.976  0.00  0.00    +0.002 A 
ATOM     27  C   UNL     1     -29.395 -14.662  12.117  0.00  0.00    +0.020 A 
ATOM     28  C   UNL     1     -28.755 -14.540  13.353  0.00  0.00    +0.042 A 
ATOM     29 CL   UNL     1     -27.078 -15.029  13.522  0.00  0.00    -0.084 Cl
ATOM     30  C   UNL     1     -29.446 -14.019  14.453  0.00  0.00    +0.033 A 
ENDBRANCH  21  24
ENDBRANCH   4  20
TORSDOF 6
ENDMDL
