MODEL 1
REMARK VINA RESULT:    -4.816      0.000      0.000
REMARK INTER + INTRA:          -7.895
REMARK INTER:                  -6.646
REMARK INTRA:                  -1.248
REMARK UNBOUND:                -1.248
REMARK  Name = 
REMARK  9 active torsions:
REMARK  status: ('A' for Active; 'I' for Inactive)
REMARK    1  A    between atoms: C_1  and  C_2
REMARK    2  A    between atoms: C_2  and  C_3
REMARK    3  A    between atoms: C_5  and  C_6
REMARK    4  A    between atoms: C_7  and  C_9
REMARK    5  A    between atoms: N_11  and  C_12
REMARK    6  A    between atoms: C_12  and  C_13
REMARK    7  A    between atoms: C_12  and  C_17
REMARK    8  A    between atoms: C_13  and  C_14
REMARK    9  A    between atoms: C_14  and  O_16
REMARK                            x       y       z     vdW  Elec       q    Type
REMARK                         _______ _______ _______ _____ _____    ______ ____
ROOT
ATOM      1  C   UNL     1     -28.659 -12.925  17.844  0.00  0.00    +0.280 C 
ATOM      2  O   UNL     1     -28.173 -11.766  17.743  0.00  0.00    -0.267 OA
ATOM      3  N   UNL     1     -28.825 -13.519  19.140  0.00  0.00    -0.301 N 
ATOM      4  H   UNL     1     -28.964 -14.552  19.205  0.00  0.00    +0.150 HD
ENDROOT
BRANCH   1   9
ATOM      5  C   UNL     1     -28.712 -14.581  14.707  0.00  0.00    +0.106 A 
ATOM      6  C   UNL     1     -30.053 -14.746  14.993  0.00  0.00    +0.048 A 
ATOM      7  C   UNL     1     -30.246 -14.139  16.218  0.00  0.00    +0.000 A 
ATOM      8  C   UNL     1     -31.561 -14.016  16.922  0.00  0.00    +0.048 C 
ATOM      9  C   UNL     1     -29.004 -13.657  16.611  0.00  0.00    +0.192 A 
ATOM     10  O   UNL     1     -28.117 -13.926  15.678  0.00  0.00    -0.455 OA
BRANCH   5  12
ATOM     11  C   UNL     1     -28.562 -14.286  12.248  0.00  0.00    +0.012 C 
ATOM     12  C   UNL     1     -28.022 -15.033  13.461  0.00  0.00    +0.071 C 
ENDBRANCH   5  12
ENDBRANCH   1   9
BRANCH   3  13
ATOM     13  C   UNL     1     -28.717 -12.731  20.372  0.00  0.00    +0.121 C 
BRANCH  13  14
ATOM     14  C   UNL     1     -30.059 -12.143  20.715  0.00  0.00    +0.011 A 
ATOM     15  C   UNL     1     -31.296 -12.604  20.276  0.00  0.00    +0.013 A 
ATOM     16  C   UNL     1     -32.370 -11.858  20.773  0.00  0.00    +0.008 A 
ATOM     17  C   UNL     1     -31.986 -10.811  21.603  0.00  0.00    +0.045 A 
ATOM     18  S   UNL     1     -30.308 -10.818  21.719  0.00  0.00    -0.100 S 
ENDBRANCH  13  14
BRANCH  13  19
ATOM     19  C   UNL     1     -28.187 -13.606  21.525  0.00  0.00    +0.148 C 
BRANCH  19  20
ATOM     20  C   UNL     1     -26.821 -14.143  21.225  0.00  0.00    +0.307 C 
ATOM     21  O   UNL     1     -25.846 -13.840  21.964  0.00  0.00    -0.251 OA
BRANCH  20  22
ATOM     22  O   UNL     1     -26.622 -14.946  20.106  0.00  0.00    -0.481 OA
ATOM     23  H   UNL     1     -27.407 -15.355  19.614  0.00  0.00    +0.295 HD
ENDBRANCH  20  22
ENDBRANCH  19  20
ENDBRANCH  13  19
ENDBRANCH   3  13
TORSDOF 7
ENDMDL
MODEL 2
REMARK VINA RESULT:    -4.624      2.429      3.742
REMARK INTER + INTRA:          -7.629
REMARK INTER:                  -6.526
REMARK INTRA:                  -1.103
REMARK UNBOUND:                -1.248
REMARK  Name = 
REMARK  9 active torsions:
REMARK  status: ('A' for Active; 'I' for Inactive)
REMARK    1  A    between atoms: C_1  and  C_2
REMARK    2  A    between atoms: C_2  and  C_3
REMARK    3  A    between atoms: C_5  and  C_6
REMARK    4  A    between atoms: C_7  and  C_9
REMARK    5  A    between atoms: N_11  and  C_12
REMARK    6  A    between atoms: C_12  and  C_13
REMARK    7  A    between atoms: C_12  and  C_17
REMARK    8  A    between atoms: C_13  and  C_14
REMARK    9  A    between atoms: C_14  and  O_16
REMARK                            x       y       z     vdW  Elec       q    Type
REMARK                         _______ _______ _______ _____ _____    ______ ____
ROOT
ATOM      1  C   UNL     1     -29.863 -13.639  17.613  0.00  0.00    +0.280 C 
ATOM      2  O   UNL     1     -30.895 -14.085  18.184  0.00  0.00    -0.267 OA
ATOM      3  N   UNL     1     -28.907 -12.874  18.361  0.00  0.00    -0.301 N 
ATOM      4  H   UNL     1     -28.216 -12.288  17.843  0.00  0.00    +0.150 HD
ENDROOT
BRANCH   1   9
ATOM      5  C   UNL     1     -28.744 -14.515  14.362  0.00  0.00    +0.106 A 
ATOM      6  C   UNL     1     -29.963 -13.997  13.972  0.00  0.00    +0.048 A 
ATOM      7  C   UNL     1     -30.574 -13.578  15.137  0.00  0.00    +0.000 A 
ATOM      8  C   UNL     1     -31.904 -12.896  15.216  0.00  0.00    +0.048 C 
ATOM      9  C   UNL     1     -29.694 -13.882  16.168  0.00  0.00    +0.192 A 
ATOM     10  O   UNL     1     -28.608 -14.427  15.666  0.00  0.00    -0.455 OA
BRANCH   5  12
ATOM     11  C   UNL     1     -27.704 -14.322  12.117  0.00  0.00    +0.012 C 
ATOM     12  C   UNL     1     -27.695 -15.062  13.449  0.00  0.00    +0.071 C 
ENDBRANCH   5  12
ENDBRANCH   1   9
BRANCH   3  13
ATOM     13  C   UNL     1     -28.932 -12.824  19.827  0.00  0.00    +0.121 C 
BRANCH  13  14
ATOM     14  C   UNL     1     -27.662 -13.419  20.374  0.00  0.00    +0.011 A 
ATOM     15  C   UNL     1     -26.388 -13.277  19.835  0.00  0.00    +0.013 A 
ATOM     16  C   UNL     1     -25.401 -13.937  20.574  0.00  0.00    +0.008 A 
ATOM     17  C   UNL     1     -25.890 -14.598  21.694  0.00  0.00    +0.045 A 
ATOM     18  S   UNL     1     -27.553 -14.358  21.764  0.00  0.00    -0.100 S 
ENDBRANCH  13  14
BRANCH  13  19
ATOM     19  C   UNL     1     -29.117 -11.374  20.313  0.00  0.00    +0.148 C 
BRANCH  19  20
ATOM     20  C   UNL     1     -29.535 -10.468  19.195  0.00  0.00    +0.307 C 
ATOM     21  O   UNL     1     -28.721 -10.178  18.277  0.00  0.00    -0.251 OA
BRANCH  20  22
ATOM     22  O   UNL     1     -30.811  -9.915  19.192  0.00  0.00    -0.481 OA
ATOM     23  H   UNL     1     -30.982  -9.004  18.783  0.00  0.00    +0.295 HD
ENDBRANCH  20  22
ENDBRANCH  19  20
ENDBRANCH  13  19
ENDBRANCH   3  13
TORSDOF 7
ENDMDL
MODEL 3
REMARK VINA RESULT:    -4.581      2.900      4.349
REMARK INTER + INTRA:          -7.571
REMARK INTER:                  -6.147
REMARK INTRA:                  -1.424
REMARK UNBOUND:                -1.248
REMARK  Name = 
REMARK  9 active torsions:
REMARK  status: ('A' for Active; 'I' for Inactive)
REMARK    1  A    between atoms: C_1  and  C_2
REMARK    2  A    between atoms: C_2  and  C_3
REMARK    3  A    between atoms: C_5  and  C_6
REMARK    4  A    between atoms: C_7  and  C_9
REMARK    5  A    between atoms: N_11  and  C_12
REMARK    6  A    between atoms: C_12  and  C_13
REMARK    7  A    between atoms: C_12  and  C_17
REMARK    8  A    between atoms: C_13  and  C_14
REMARK    9  A    between atoms: C_14  and  O_16
REMARK                            x       y       z     vdW  Elec       q    Type
REMARK                         _______ _______ _______ _____ _____    ______ ____
ROOT
ATOM      1  C   UNL     1     -31.635 -13.250  16.771  0.00  0.00    +0.280 C 
ATOM      2  O   UNL     1     -32.436 -14.044  17.334  0.00  0.00    -0.267 OA
ATOM      3  N   UNL     1     -31.030 -12.191  17.526  0.00  0.00    -0.301 N 
ATOM      4  H   UNL     1     -30.597 -11.391  17.013  0.00  0.00    +0.150 HD
ENDROOT
BRANCH   1   9
ATOM      5  C   UNL     1     -31.733 -13.277  13.225  0.00  0.00    +0.106 A 
ATOM      6  C   UNL     1     -30.514 -13.912  13.351  0.00  0.00    +0.048 A 
ATOM      7  C   UNL     1     -30.288 -14.009  14.710  0.00  0.00    +0.000 A 
ATOM      8  C   UNL     1     -29.107 -14.675  15.343  0.00  0.00    +0.048 C 
ATOM      9  C   UNL     1     -31.380 -13.411  15.328  0.00  0.00    +0.192 A 
ATOM     10  O   UNL     1     -32.227 -13.000  14.410  0.00  0.00    -0.455 OA
BRANCH   5  12
ATOM     11  C   UNL     1     -33.923 -12.766  12.175  0.00  0.00    +0.012 C 
ATOM     12  C   UNL     1     -32.433 -12.978  11.938  0.00  0.00    +0.071 C 
ENDBRANCH   5  12
ENDBRANCH   1   9
BRANCH   3  13
ATOM     13  C   UNL     1     -31.080 -12.158  18.992  0.00  0.00    +0.121 C 
BRANCH  13  14
ATOM     14  C   UNL     1     -29.770 -12.643  19.552  0.00  0.00    +0.011 A 
ATOM     15  C   UNL     1     -29.552 -13.115  20.842  0.00  0.00    +0.013 A 
ATOM     16  C   UNL     1     -28.228 -13.507  21.068  0.00  0.00    +0.008 A 
ATOM     17  C   UNL     1     -27.402 -13.348  19.962  0.00  0.00    +0.045 A 
ATOM     18  S   UNL     1     -28.322 -12.721  18.702  0.00  0.00    -0.100 S 
ENDBRANCH  13  14
BRANCH  13  19
ATOM     19  C   UNL     1     -31.401 -10.735  19.487  0.00  0.00    +0.148 C 
BRANCH  19  20
ATOM     20  C   UNL     1     -30.454  -9.726  18.914  0.00  0.00    +0.307 C 
ATOM     21  O   UNL     1     -30.371  -9.574  17.665  0.00  0.00    -0.251 OA
BRANCH  20  22
ATOM     22  O   UNL     1     -29.637  -8.983  19.760  0.00  0.00    -0.481 OA
ATOM     23  H   UNL     1     -28.646  -9.178  19.829  0.00  0.00    +0.295 HD
ENDBRANCH  20  22
ENDBRANCH  19  20
ENDBRANCH  13  19
ENDBRANCH   3  13
TORSDOF 7
ENDMDL
MODEL 4
REMARK VINA RESULT:    -4.568      3.130      3.657
REMARK INTER + INTRA:          -7.552
REMARK INTER:                  -6.228
REMARK INTRA:                  -1.323
REMARK UNBOUND:                -1.248
REMARK  Name = 
REMARK  9 active torsions:
REMARK  status: ('A' for Active; 'I' for Inactive)
REMARK    1  A    between atoms: C_1  and  C_2
REMARK    2  A    between atoms: C_2  and  C_3
REMARK    3  A    between atoms: C_5  and  C_6
REMARK    4  A    between atoms: C_7  and  C_9
REMARK    5  A    between atoms: N_11  and  C_12
REMARK    6  A    between atoms: C_12  and  C_13
REMARK    7  A    between atoms: C_12  and  C_17
REMARK    8  A    between atoms: C_13  and  C_14
REMARK    9  A    between atoms: C_14  and  O_16
REMARK                            x       y       z     vdW  Elec       q    Type
REMARK                         _______ _______ _______ _____ _____    ______ ____
ROOT
ATOM      1  C   UNL     1     -30.570 -10.418  16.495  0.00  0.00    +0.280 C 
ATOM      2  O   UNL     1     -30.145  -9.236  16.387  0.00  0.00    -0.267 OA
ATOM      3  N   UNL     1     -30.098 -11.251  17.564  0.00  0.00    -0.301 N 
ATOM      4  H   UNL     1     -30.233 -12.284  17.494  0.00  0.00    +0.150 HD
ENDROOT
BRANCH   1   9
ATOM      5  C   UNL     1     -32.225 -12.111  13.853  0.00  0.00    +0.106 A 
ATOM      6  C   UNL     1     -33.278 -11.286  14.193  0.00  0.00    +0.048 A 
ATOM      7  C   UNL     1     -32.817 -10.511  15.238  0.00  0.00    +0.000 A 
ATOM      8  C   UNL     1     -33.593  -9.424  15.914  0.00  0.00    +0.048 C 
ATOM      9  C   UNL     1     -31.513 -10.926  15.482  0.00  0.00    +0.192 A 
ATOM     10  O   UNL     1     -31.190 -11.870  14.626  0.00  0.00    -0.455 OA
BRANCH   5  12
ATOM     11  C   UNL     1     -33.512 -13.023  11.938  0.00  0.00    +0.012 C 
ATOM     12  C   UNL     1     -32.221 -13.110  12.741  0.00  0.00    +0.071 C 
ENDBRANCH   5  12
ENDBRANCH   1   9
BRANCH   3  13
ATOM     13  C   UNL     1     -29.357 -10.702  18.705  0.00  0.00    +0.121 C 
BRANCH  13  14
ATOM     14  C   UNL     1     -30.323 -10.286  19.781  0.00  0.00    +0.011 A 
ATOM     15  C   UNL     1     -31.101 -11.134  20.561  0.00  0.00    +0.013 A 
ATOM     16  C   UNL     1     -31.896 -10.454  21.490  0.00  0.00    +0.008 A 
ATOM     17  C   UNL     1     -31.747  -9.073  21.448  0.00  0.00    +0.045 A 
ATOM     18  S   UNL     1     -30.623  -8.700  20.253  0.00  0.00    -0.100 S 
ENDBRANCH  13  14
BRANCH  13  19
ATOM     19  C   UNL     1     -28.347 -11.736  19.238  0.00  0.00    +0.148 C 
BRANCH  19  20
ATOM     20  C   UNL     1     -28.495 -13.057  18.548  0.00  0.00    +0.307 C 
ATOM     21  O   UNL     1     -28.040 -13.217  17.383  0.00  0.00    -0.251 OA
BRANCH  20  22
ATOM     22  O   UNL     1     -29.170 -14.097  19.179  0.00  0.00    -0.481 OA
ATOM     23  H   UNL     1     -30.182 -14.111  19.218  0.00  0.00    +0.295 HD
ENDBRANCH  20  22
ENDBRANCH  19  20
ENDBRANCH  13  19
ENDBRANCH   3  13
TORSDOF 7
ENDMDL
MODEL 5
REMARK VINA RESULT:    -4.425      3.436      5.870
REMARK INTER + INTRA:          -7.355
REMARK INTER:                  -6.242
REMARK INTRA:                  -1.113
REMARK UNBOUND:                -1.248
REMARK  Name = 
REMARK  9 active torsions:
REMARK  status: ('A' for Active; 'I' for Inactive)
REMARK    1  A    between atoms: C_1  and  C_2
REMARK    2  A    between atoms: C_2  and  C_3
REMARK    3  A    between atoms: C_5  and  C_6
REMARK    4  A    between atoms: C_7  and  C_9
REMARK    5  A    between atoms: N_11  and  C_12
REMARK    6  A    between atoms: C_12  and  C_13
REMARK    7  A    between atoms: C_12  and  C_17
REMARK    8  A    between atoms: C_13  and  C_14
REMARK    9  A    between atoms: C_14  and  O_16
REMARK                            x       y       z     vdW  Elec       q    Type
REMARK                         _______ _______ _______ _____ _____    ______ ____
ROOT
ATOM      1  C   UNL     1     -28.927 -10.860  18.686  0.00  0.00    +0.280 C 
ATOM      2  O   UNL     1     -28.277 -10.353  17.732  0.00  0.00    -0.267 OA
ATOM      3  N   UNL     1     -30.202 -10.311  19.052  0.00  0.00    -0.301 N 
ATOM      4  H   UNL     1     -30.600 -10.546  19.988  0.00  0.00    +0.150 HD
ENDROOT
BRANCH   1   9
ATOM      5  C   UNL     1     -26.800 -13.252  20.215  0.00  0.00    +0.106 A 
ATOM      6  C   UNL     1     -27.990 -13.799  20.653  0.00  0.00    +0.048 A 
ATOM      7  C   UNL     1     -28.980 -12.987  20.138  0.00  0.00    +0.000 A 
ATOM      8  C   UNL     1     -30.451 -13.210  20.303  0.00  0.00    +0.048 C 
ATOM      9  C   UNL     1     -28.330 -11.983  19.430  0.00  0.00    +0.192 A 
ATOM     10  O   UNL     1     -27.032 -12.183  19.487  0.00  0.00    -0.455 OA
BRANCH   5  12
ATOM     11  C   UNL     1     -25.446 -14.689  21.718  0.00  0.00    +0.012 C 
ATOM     12  C   UNL     1     -25.436 -13.802  20.480  0.00  0.00    +0.071 C 
ENDBRANCH   5  12
ENDBRANCH   1   9
BRANCH   3  13
ATOM     13  C   UNL     1     -30.914  -9.364  18.187  0.00  0.00    +0.121 C 
BRANCH  13  14
ATOM     14  C   UNL     1     -31.607 -10.114  17.081  0.00  0.00    +0.011 A 
ATOM     15  C   UNL     1     -31.279 -10.077  15.731  0.00  0.00    +0.013 A 
ATOM     16  C   UNL     1     -32.098 -10.892  14.942  0.00  0.00    +0.008 A 
ATOM     17  C   UNL     1     -33.070 -11.573  15.665  0.00  0.00    +0.045 A 
ATOM     18  S   UNL     1     -32.907 -11.161  17.287  0.00  0.00    -0.100 S 
ENDBRANCH  13  14
BRANCH  13  19
ATOM     19  C   UNL     1     -31.921  -8.537  19.010  0.00  0.00    +0.148 C 
BRANCH  19  20
ATOM     20  C   UNL     1     -31.270  -7.906  20.202  0.00  0.00    +0.307 C 
ATOM     21  O   UNL     1     -31.974  -7.329  21.075  0.00  0.00    -0.251 OA
BRANCH  20  22
ATOM     22  O   UNL     1     -29.885  -7.922  20.326  0.00  0.00    -0.481 OA
ATOM     23  H   UNL     1     -29.370  -7.071  20.515  0.00  0.00    +0.295 HD
ENDBRANCH  20  22
ENDBRANCH  19  20
ENDBRANCH  13  19
ENDBRANCH   3  13
TORSDOF 7
ENDMDL
MODEL 6
REMARK VINA RESULT:    -4.150      2.277      5.844
REMARK INTER + INTRA:          -6.975
REMARK INTER:                  -6.052
REMARK INTRA:                  -0.923
REMARK UNBOUND:                -1.248
REMARK  Name = 
REMARK  9 active torsions:
REMARK  status: ('A' for Active; 'I' for Inactive)
REMARK    1  A    between atoms: C_1  and  C_2
REMARK    2  A    between atoms: C_2  and  C_3
REMARK    3  A    between atoms: C_5  and  C_6
REMARK    4  A    between atoms: C_7  and  C_9
REMARK    5  A    between atoms: N_11  and  C_12
REMARK    6  A    between atoms: C_12  and  C_13
REMARK    7  A    between atoms: C_12  and  C_17
REMARK    8  A    between atoms: C_13  and  C_14
REMARK    9  A    between atoms: C_14  and  O_16
REMARK                            x       y       z     vdW  Elec       q    Type
REMARK                         _______ _______ _______ _____ _____    ______ ____
ROOT
ATOM      1  C   UNL     1     -30.405 -13.367  19.362  0.00  0.00    +0.280 C 
ATOM      2  O   UNL     1     -31.607 -13.207  19.705  0.00  0.00    -0.267 OA
ATOM      3  N   UNL     1     -30.092 -13.744  18.013  0.00  0.00    -0.301 N 
ATOM      4  H   UNL     1     -29.146 -14.136  17.807  0.00  0.00    +0.150 HD
ENDROOT
BRANCH   1   9
ATOM      5  C   UNL     1     -27.578 -13.649  21.486  0.00  0.00    +0.106 A 
ATOM      6  C   UNL     1     -28.092 -12.504  22.062  0.00  0.00    +0.048 A 
ATOM      7  C   UNL     1     -29.244 -12.222  21.356  0.00  0.00    +0.000 A 
ATOM      8  C   UNL     1     -30.181 -11.092  21.650  0.00  0.00    +0.048 C 
ATOM      9  C   UNL     1     -29.352 -13.206  20.380  0.00  0.00    +0.192 A 
ATOM     10  O   UNL     1     -28.348 -14.047  20.499  0.00  0.00    -0.455 OA
BRANCH   5  12
ATOM     11  C   UNL     1     -25.298 -14.375  20.828  0.00  0.00    +0.012 C 
ATOM     12  C   UNL     1     -26.349 -14.375  21.931  0.00  0.00    +0.071 C 
ENDBRANCH   5  12
ENDBRANCH   1   9
BRANCH   3  13
ATOM     13  C   UNL     1     -31.088 -13.676  16.939  0.00  0.00    +0.121 C 
BRANCH  13  14
ATOM     14  C   UNL     1     -31.191 -12.262  16.434  0.00  0.00    +0.011 A 
ATOM     15  C   UNL     1     -32.024 -11.811  15.416  0.00  0.00    +0.013 A 
ATOM     16  C   UNL     1     -31.906 -10.437  15.177  0.00  0.00    +0.008 A 
ATOM     17  C   UNL     1     -30.986  -9.803  16.003  0.00  0.00    +0.045 A 
ATOM     18  S   UNL     1     -30.320 -10.955  17.032  0.00  0.00    -0.100 S 
ENDBRANCH  13  14
BRANCH  13  19
ATOM     19  C   UNL     1     -30.718 -14.645  15.799  0.00  0.00    +0.148 C 
BRANCH  19  20
ATOM     20  C   UNL     1     -29.313 -14.426  15.326  0.00  0.00    +0.307 C 
ATOM     21  O   UNL     1     -29.088 -14.153  14.116  0.00  0.00    -0.251 OA
BRANCH  20  22
ATOM     22  O   UNL     1     -28.253 -14.564  16.216  0.00  0.00    -0.481 OA
ATOM     23  H   UNL     1     -27.784 -15.455  16.332  0.00  0.00    +0.295 HD
ENDBRANCH  20  22
ENDBRANCH  19  20
ENDBRANCH  13  19
ENDBRANCH   3  13
TORSDOF 7
ENDMDL
MODEL 7
REMARK VINA RESULT:    -4.149      2.797      4.006
REMARK INTER + INTRA:          -6.974
REMARK INTER:                  -5.683
REMARK INTRA:                  -1.292
REMARK UNBOUND:                -1.248
REMARK  Name = 
REMARK  9 active torsions:
REMARK  status: ('A' for Active; 'I' for Inactive)
REMARK    1  A    between atoms: C_1  and  C_2
REMARK    2  A    between atoms: C_2  and  C_3
REMARK    3  A    between atoms: C_5  and  C_6
REMARK    4  A    between atoms: C_7  and  C_9
REMARK    5  A    between atoms: N_11  and  C_12
REMARK    6  A    between atoms: C_12  and  C_13
REMARK    7  A    between atoms: C_12  and  C_17
REMARK    8  A    between atoms: C_13  and  C_14
REMARK    9  A    between atoms: C_14  and  O_16
REMARK                            x       y       z     vdW  Elec       q    Type
REMARK                         _______ _______ _______ _____ _____    ______ ____
ROOT
ATOM      1  C   UNL     1     -31.701 -13.060  16.535  0.00  0.00    +0.280 C 
ATOM      2  O   UNL     1     -32.813 -13.446  16.988  0.00  0.00    -0.267 OA
ATOM      3  N   UNL     1     -30.807 -12.316  17.375  0.00  0.00    -0.301 N 
ATOM      4  H   UNL     1     -30.033 -11.775  16.930  0.00  0.00    +0.150 HD
ENDROOT
BRANCH   1   9
ATOM      5  C   UNL     1     -30.332 -14.207  13.470  0.00  0.00    +0.106 A 
ATOM      6  C   UNL     1     -31.319 -13.418  12.913  0.00  0.00    +0.048 A 
ATOM      7  C   UNL     1     -31.986 -12.855  13.982  0.00  0.00    +0.000 A 
ATOM      8  C   UNL     1     -33.114 -11.877  13.877  0.00  0.00    +0.048 C 
ATOM      9  C   UNL     1     -31.373 -13.350  15.127  0.00  0.00    +0.192 A 
ATOM     10  O   UNL     1     -30.382 -14.142  14.781  0.00  0.00    -0.455 OA
BRANCH   5  12
ATOM     11  C   UNL     1     -27.964 -14.947  13.418  0.00  0.00    +0.012 C 
ATOM     12  C   UNL     1     -29.313 -14.996  12.712  0.00  0.00    +0.071 C 
ENDBRANCH   5  12
ENDBRANCH   1   9
BRANCH   3  13
ATOM     13  C   UNL     1     -31.003 -12.225  18.826  0.00  0.00    +0.121 C 
BRANCH  13  14
ATOM     14  C   UNL     1     -29.764 -12.703  19.534  0.00  0.00    +0.011 A 
ATOM     15  C   UNL     1     -29.672 -13.075  20.870  0.00  0.00    +0.013 A 
ATOM     16  C   UNL     1     -28.387 -13.488  21.240  0.00  0.00    +0.008 A 
ATOM     17  C   UNL     1     -27.466 -13.444  20.200  0.00  0.00    +0.045 A 
ATOM     18  S   UNL     1     -28.254 -12.894  18.820  0.00  0.00    -0.100 S 
ENDBRANCH  13  14
BRANCH  13  19
ATOM     19  C   UNL     1     -31.350 -10.780  19.232  0.00  0.00    +0.148 C 
BRANCH  19  20
ATOM     20  C   UNL     1     -30.311  -9.811  18.759  0.00  0.00    +0.307 C 
ATOM     21  O   UNL     1     -30.048  -9.715  17.529  0.00  0.00    -0.251 OA
BRANCH  20  22
ATOM     22  O   UNL     1     -29.607  -9.043  19.681  0.00  0.00    -0.481 OA
ATOM     23  H   UNL     1     -29.746  -9.171  20.676  0.00  0.00    +0.295 HD
ENDBRANCH  20  22
ENDBRANCH  19  20
ENDBRANCH  13  19
ENDBRANCH   3  13
TORSDOF 7
ENDMDL
MODEL 8
REMARK VINA RESULT:    -4.113      3.077      6.192
REMARK INTER + INTRA:          -6.924
REMARK INTER:                  -5.680
REMARK INTRA:                  -1.243
REMARK UNBOUND:                -1.248
REMARK  Name = 
REMARK  9 active torsions:
REMARK  status: ('A' for Active; 'I' for Inactive)
REMARK    1  A    between atoms: C_1  and  C_2
REMARK    2  A    between atoms: C_2  and  C_3
REMARK    3  A    between atoms: C_5  and  C_6
REMARK    4  A    between atoms: C_7  and  C_9
REMARK    5  A    between atoms: N_11  and  C_12
REMARK    6  A    between atoms: C_12  and  C_13
REMARK    7  A    between atoms: C_12  and  C_17
REMARK    8  A    between atoms: C_13  and  C_14
REMARK    9  A    between atoms: C_14  and  O_16
REMARK                            x       y       z     vdW  Elec       q    Type
REMARK                         _______ _______ _______ _____ _____    ______ ____
ROOT
ATOM      1  C   UNL     1     -28.869 -11.183  18.488  0.00  0.00    +0.280 C 
ATOM      2  O   UNL     1     -27.979 -10.466  17.956  0.00  0.00    -0.267 OA
ATOM      3  N   UNL     1     -30.219 -11.122  18.004  0.00  0.00    -0.301 N 
ATOM      4  H   UNL     1     -30.986 -11.494  18.606  0.00  0.00    +0.150 HD
ENDROOT
BRANCH   1   9
ATOM      5  C   UNL     1     -27.471 -13.562  20.718  0.00  0.00    +0.106 A 
ATOM      6  C   UNL     1     -28.361 -13.009  21.618  0.00  0.00    +0.048 A 
ATOM      7  C   UNL     1     -29.034 -12.030  20.916  0.00  0.00    +0.000 A 
ATOM      8  C   UNL     1     -30.142 -11.185  21.462  0.00  0.00    +0.048 C 
ATOM      9  C   UNL     1     -28.499 -12.035  19.633  0.00  0.00    +0.192 A 
ATOM     10  O   UNL     1     -27.581 -12.972  19.549  0.00  0.00    -0.455 OA
BRANCH   5  12
ATOM     11  C   UNL     1     -25.106 -14.311  20.652  0.00  0.00    +0.012 C 
ATOM     12  C   UNL     1     -26.539 -14.697  20.996  0.00  0.00    +0.071 C 
ENDBRANCH   5  12
ENDBRANCH   1   9
BRANCH   3  13
ATOM     13  C   UNL     1     -30.557 -10.474  16.733  0.00  0.00    +0.121 C 
BRANCH  13  14
ATOM     14  C   UNL     1     -30.994 -11.514  15.736  0.00  0.00    +0.011 A 
ATOM     15  C   UNL     1     -31.876 -11.321  14.679  0.00  0.00    +0.013 A 
ATOM     16  C   UNL     1     -32.079 -12.475  13.914  0.00  0.00    +0.008 A 
ATOM     17  C   UNL     1     -31.361 -13.576  14.363  0.00  0.00    +0.045 A 
ATOM     18  S   UNL     1     -30.470 -13.111  15.711  0.00  0.00    -0.100 S 
ENDBRANCH  13  14
BRANCH  13  19
ATOM     19  C   UNL     1     -31.656  -9.415  16.944  0.00  0.00    +0.148 C 
BRANCH  19  20
ATOM     20  C   UNL     1     -31.924  -9.183  18.399  0.00  0.00    +0.307 C 
ATOM     21  O   UNL     1     -31.058  -8.617  19.120  0.00  0.00    -0.251 OA
BRANCH  20  22
ATOM     22  O   UNL     1     -33.115  -9.627  18.964  0.00  0.00    -0.481 OA
ATOM     23  H   UNL     1     -33.224  -9.683  19.970  0.00  0.00    +0.295 HD
ENDBRANCH  20  22
ENDBRANCH  19  20
ENDBRANCH  13  19
ENDBRANCH   3  13
TORSDOF 7
ENDMDL
MODEL 9
REMARK VINA RESULT:    -3.919      3.045      4.289
REMARK INTER + INTRA:          -6.656
REMARK INTER:                  -5.304
REMARK INTRA:                  -1.352
REMARK UNBOUND:                -1.248
REMARK  Name = 
REMARK  9 active torsions:
REMARK  status: ('A' for Active; 'I' for Inactive)
REMARK    1  A    between atoms: C_1  and  C_2
REMARK    2  A    between atoms: C_2  and  C_3
REMARK    3  A    between atoms: C_5  and  C_6
REMARK    4  A    between atoms: C_7  and  C_9
REMARK    5  A    between atoms: N_11  and  C_12
REMARK    6  A    between atoms: C_12  and  C_13
REMARK    7  A    between atoms: C_12  and  C_17
REMARK    8  A    between atoms: C_13  and  C_14
REMARK    9  A    between atoms: C_14  and  O_16
REMARK                            x       y       z     vdW  Elec       q    Type
REMARK                         _______ _______ _______ _____ _____    ______ ____
ROOT
ATOM      1  C   UNL     1     -31.401 -12.326  18.253  0.00  0.00    +0.280 C 
ATOM      2  O   UNL     1     -32.398 -12.818  18.847  0.00  0.00    -0.267 OA
ATOM      3  N   UNL     1     -30.248 -11.921  19.008  0.00  0.00    -0.301 N 
ATOM      4  H   UNL     1     -29.556 -11.278  18.564  0.00  0.00    +0.150 HD
ENDROOT
BRANCH   1   9
ATOM      5  C   UNL     1     -31.480 -12.667  14.723  0.00  0.00    +0.106 A 
ATOM      6  C   UNL     1     -31.610 -11.293  14.749  0.00  0.00    +0.048 A 
ATOM      7  C   UNL     1     -31.593 -10.947  16.086  0.00  0.00    +0.000 A 
ATOM      8  C   UNL     1     -31.655  -9.548  16.615  0.00  0.00    +0.048 C 
ATOM      9  C   UNL     1     -31.470 -12.137  16.793  0.00  0.00    +0.192 A 
ATOM     10  O   UNL     1     -31.390 -13.139  15.946  0.00  0.00    -0.455 OA
BRANCH   5  12
ATOM     11  C   UNL     1     -32.447 -13.075  12.474  0.00  0.00    +0.012 C 
ATOM     12  C   UNL     1     -31.404 -13.515  13.494  0.00  0.00    +0.071 C 
ENDBRANCH   5  12
ENDBRANCH   1   9
BRANCH   3  13
ATOM     13  C   UNL     1     -30.063 -12.315  20.409  0.00  0.00    +0.121 C 
BRANCH  13  14
ATOM     14  C   UNL     1     -28.714 -12.959  20.578  0.00  0.00    +0.011 A 
ATOM     15  C   UNL     1     -28.354 -13.868  21.567  0.00  0.00    +0.013 A 
ATOM     16  C   UNL     1     -27.029 -14.304  21.459  0.00  0.00    +0.008 A 
ATOM     17  C   UNL     1     -26.342 -13.743  20.389  0.00  0.00    +0.045 A 
ATOM     18  S   UNL     1     -27.388 -12.707  19.576  0.00  0.00    -0.100 S 
ENDBRANCH  13  14
BRANCH  13  19
ATOM     19  C   UNL     1     -30.213 -11.093  21.335  0.00  0.00    +0.148 C 
BRANCH  19  20
ATOM     20  C   UNL     1     -30.385  -9.827  20.552  0.00  0.00    +0.307 C 
ATOM     21  O   UNL     1     -31.434  -9.141  20.682  0.00  0.00    -0.251 OA
BRANCH  20  22
ATOM     22  O   UNL     1     -29.401  -9.429  19.653  0.00  0.00    -0.481 OA
ATOM     23  H   UNL     1     -29.612  -8.776  18.908  0.00  0.00    +0.295 HD
ENDBRANCH  20  22
ENDBRANCH  19  20
ENDBRANCH  13  19
ENDBRANCH   3  13
TORSDOF 7
ENDMDL
