MODEL 1
REMARK VINA RESULT:    -5.228      0.000      0.000
REMARK INTER + INTRA:          -9.121
REMARK INTER:                  -7.521
REMARK INTRA:                  -1.601
REMARK UNBOUND:                -1.601
REMARK  Name = 
REMARK  11 active torsions:
REMARK  status: ('A' for Active; 'I' for Inactive)
REMARK    1  A    between atoms: C_1  and  O_2
REMARK    2  A    between atoms: O_2  and  C_3
REMARK    3  A    between atoms: C_8  and  C_9
REMARK    4  A    between atoms: C_9  and  C_10
REMARK    5  A    between atoms: C_9  and  N_11
REMARK    6  A    between atoms: C_12  and  C_14
REMARK    7  A    between atoms: C_14  and  C_15
REMARK    8  A    between atoms: C_15  and  C_16
REMARK    9  A    between atoms: C_15  and  C_17
REMARK   10  A    between atoms: C_15  and  C_20
REMARK   11  A    between atoms: C_17  and  O_19
REMARK                            x       y       z     vdW  Elec       q    Type
REMARK                         _______ _______ _______ _____ _____    ______ ____
ROOT
ATOM      1  N   UNL     1     -31.183 -12.562  16.742  0.00  0.00    -0.309 N 
ATOM      2  C   UNL     1     -31.307 -12.575  18.170  0.00  0.00    +0.215 C 
ATOM      3  O   UNL     1     -32.253 -11.959  18.730  0.00  0.00    -0.276 OA
ATOM      4  H   UNL     1     -30.468 -13.185  16.300  0.00  0.00    +0.149 HD
ENDROOT
BRANCH   1   5
ATOM      5  C   UNL     1     -31.973 -11.660  15.897  0.00  0.00    +0.104 C 
ATOM      6  C   UNL     1     -31.267 -10.310  15.755  0.00  0.00    +0.033 C 
BRANCH   5  12
ATOM      7  C   UNL     1     -31.263 -13.117  13.935  0.00  0.00    +0.125 A 
ATOM      8  C   UNL     1     -31.521 -13.678  12.668  0.00  0.00    +0.046 A 
ATOM      9  C   UNL     1     -32.714 -13.397  12.000  0.00  0.00    +0.004 A 
ATOM     10  C   UNL     1     -33.671 -12.575  12.593  0.00  0.00    +0.001 A 
ATOM     11  C   UNL     1     -33.437 -12.022  13.852  0.00  0.00    +0.009 A 
ATOM     12  C   UNL     1     -32.222 -12.260  14.524  0.00  0.00    +0.014 A 
BRANCH   7  14
ATOM     13  C   UNL     1     -29.417 -14.656  14.641  0.00  0.00    +0.277 C 
ATOM     14  O   UNL     1     -30.075 -13.394  14.633  0.00  0.00    -0.495 OA
ENDBRANCH   7  14
ENDBRANCH   5  12
ENDBRANCH   1   5
BRANCH   2  15
ATOM     15  C   UNL     1     -30.277 -13.281  19.012  0.00  0.00    +0.118 C 
BRANCH  15  16
ATOM     16  C   UNL     1     -29.286 -12.301  19.713  0.00  0.00    +0.098 C 
ATOM     17  C   UNL     1     -28.820 -11.226  18.700  0.00  0.00    +0.028 C 
BRANCH  16  18
ATOM     18  C   UNL     1     -28.119 -13.104  20.324  0.00  0.00    -0.030 A 
ATOM     19  C   UNL     1     -28.257 -13.873  21.506  0.00  0.00    +0.005 A 
ATOM     20  C   UNL     1     -27.157 -14.533  22.062  0.00  0.00    +0.000 A 
ATOM     21  C   UNL     1     -25.900 -14.434  21.464  0.00  0.00    +0.000 A 
ATOM     22  C   UNL     1     -25.737 -13.664  20.313  0.00  0.00    +0.000 A 
ATOM     23  C   UNL     1     -26.831 -13.000  19.750  0.00  0.00    +0.005 A 
ENDBRANCH  16  18
BRANCH  16  24
ATOM     24  C   UNL     1     -29.994 -11.546  20.827  0.00  0.00    +0.316 C 
ATOM     25  O   UNL     1     -29.476 -10.524  21.351  0.00  0.00    -0.250 OA
BRANCH  24  26
ATOM     26  O   UNL     1     -31.206 -12.024  21.322  0.00  0.00    -0.480 OA
ATOM     27  H   UNL     1     -31.651 -11.586  22.119  0.00  0.00    +0.295 HD
ENDBRANCH  24  26
ENDBRANCH  16  24
ENDBRANCH  15  16
ENDBRANCH   2  15
TORSDOF 8
ENDMDL
MODEL 2
REMARK VINA RESULT:    -5.049      1.115      2.032
REMARK INTER + INTRA:          -8.864
REMARK INTER:                  -7.488
REMARK INTRA:                  -1.376
REMARK UNBOUND:                -1.601
REMARK  Name = 
REMARK  11 active torsions:
REMARK  status: ('A' for Active; 'I' for Inactive)
REMARK    1  A    between atoms: C_1  and  O_2
REMARK    2  A    between atoms: O_2  and  C_3
REMARK    3  A    between atoms: C_8  and  C_9
REMARK    4  A    between atoms: C_9  and  C_10
REMARK    5  A    between atoms: C_9  and  N_11
REMARK    6  A    between atoms: C_12  and  C_14
REMARK    7  A    between atoms: C_14  and  C_15
REMARK    8  A    between atoms: C_15  and  C_16
REMARK    9  A    between atoms: C_15  and  C_17
REMARK   10  A    between atoms: C_15  and  C_20
REMARK   11  A    between atoms: C_17  and  O_19
REMARK                            x       y       z     vdW  Elec       q    Type
REMARK                         _______ _______ _______ _____ _____    ______ ____
ROOT
ATOM      1  N   UNL     1     -31.173 -12.556  16.633  0.00  0.00    -0.309 N 
ATOM      2  C   UNL     1     -31.320 -12.707  18.051  0.00  0.00    +0.215 C 
ATOM      3  O   UNL     1     -32.332 -12.239  18.638  0.00  0.00    -0.276 OA
ATOM      4  H   UNL     1     -30.392 -13.064  16.158  0.00  0.00    +0.149 HD
ENDROOT
BRANCH   1   5
ATOM      5  C   UNL     1     -32.035 -11.664  15.849  0.00  0.00    +0.104 C 
ATOM      6  C   UNL     1     -31.377 -10.293  15.688  0.00  0.00    +0.033 C 
BRANCH   5  12
ATOM      7  C   UNL     1     -33.588 -11.991  13.859  0.00  0.00    +0.125 A 
ATOM      8  C   UNL     1     -33.851 -12.533  12.585  0.00  0.00    +0.046 A 
ATOM      9  C   UNL     1     -32.893 -13.317  11.939  0.00  0.00    +0.004 A 
ATOM     10  C   UNL     1     -31.659 -13.552  12.543  0.00  0.00    +0.001 A 
ATOM     11  C   UNL     1     -31.379 -13.013  13.798  0.00  0.00    +0.009 A 
ATOM     12  C   UNL     1     -32.347 -12.253  14.484  0.00  0.00    +0.014 A 
BRANCH   7  14
ATOM     13  C   UNL     1     -35.061  -9.970  14.013  0.00  0.00    +0.277 C 
ATOM     14  O   UNL     1     -34.530 -11.188  14.526  0.00  0.00    -0.495 OA
ENDBRANCH   7  14
ENDBRANCH   5  12
ENDBRANCH   1   5
BRANCH   2  15
ATOM     15  C   UNL     1     -30.238 -13.379  18.855  0.00  0.00    +0.118 C 
BRANCH  15  16
ATOM     16  C   UNL     1     -29.270 -12.367  19.543  0.00  0.00    +0.098 C 
ATOM     17  C   UNL     1     -28.766 -11.343  18.497  0.00  0.00    +0.028 C 
BRANCH  16  18
ATOM     18  C   UNL     1     -28.129 -13.140  20.236  0.00  0.00    -0.030 A 
ATOM     19  C   UNL     1     -28.318 -13.872  21.433  0.00  0.00    +0.005 A 
ATOM     20  C   UNL     1     -27.242 -14.506  22.062  0.00  0.00    +0.000 A 
ATOM     21  C   UNL     1     -25.958 -14.415  21.522  0.00  0.00    +0.000 A 
ATOM     22  C   UNL     1     -25.745 -13.680  20.356  0.00  0.00    +0.000 A 
ATOM     23  C   UNL     1     -26.815 -13.044  19.720  0.00  0.00    +0.005 A 
ENDBRANCH  16  18
BRANCH  16  24
ATOM     24  C   UNL     1     -30.017 -11.558  20.594  0.00  0.00    +0.316 C 
ATOM     25  O   UNL     1     -29.569 -10.453  21.001  0.00  0.00    -0.250 OA
BRANCH  24  26
ATOM     26  O   UNL     1     -31.182 -12.071  21.160  0.00  0.00    -0.480 OA
ATOM     27  H   UNL     1     -31.541 -12.976  20.880  0.00  0.00    +0.295 HD
ENDBRANCH  24  26
ENDBRANCH  16  24
ENDBRANCH  15  16
ENDBRANCH   2  15
TORSDOF 8
ENDMDL
MODEL 3
REMARK VINA RESULT:    -4.937      2.478      4.484
REMARK INTER + INTRA:          -8.702
REMARK INTER:                  -6.426
REMARK INTRA:                  -2.276
REMARK UNBOUND:                -1.601
REMARK  Name = 
REMARK  11 active torsions:
REMARK  status: ('A' for Active; 'I' for Inactive)
REMARK    1  A    between atoms: C_1  and  O_2
REMARK    2  A    between atoms: O_2  and  C_3
REMARK    3  A    between atoms: C_8  and  C_9
REMARK    4  A    between atoms: C_9  and  C_10
REMARK    5  A    between atoms: C_9  and  N_11
REMARK    6  A    between atoms: C_12  and  C_14
REMARK    7  A    between atoms: C_14  and  C_15
REMARK    8  A    between atoms: C_15  and  C_16
REMARK    9  A    between atoms: C_15  and  C_17
REMARK   10  A    between atoms: C_15  and  C_20
REMARK   11  A    between atoms: C_17  and  O_19
REMARK                            x       y       z     vdW  Elec       q    Type
REMARK                         _______ _______ _______ _____ _____    ______ ____
ROOT
ATOM      1  N   UNL     1     -29.886 -12.320  16.693  0.00  0.00    -0.309 N 
ATOM      2  C   UNL     1     -29.018 -12.107  17.814  0.00  0.00    +0.215 C 
ATOM      3  O   UNL     1     -28.154 -12.971  18.121  0.00  0.00    -0.276 OA
ATOM      4  H   UNL     1     -30.501 -11.532  16.385  0.00  0.00    +0.149 HD
ENDROOT
BRANCH   1   5
ATOM      5  C   UNL     1     -29.985 -13.618  16.017  0.00  0.00    +0.104 C 
ATOM      6  C   UNL     1     -30.711 -14.628  16.907  0.00  0.00    +0.033 C 
BRANCH   5  12
ATOM      7  C   UNL     1     -30.250 -14.229  13.560  0.00  0.00    +0.125 A 
ATOM      8  C   UNL     1     -30.938 -14.114  12.336  0.00  0.00    +0.046 A 
ATOM      9  C   UNL     1     -32.059 -13.289  12.229  0.00  0.00    +0.004 A 
ATOM     10  C   UNL     1     -32.520 -12.587  13.343  0.00  0.00    +0.001 A 
ATOM     11  C   UNL     1     -31.857 -12.700  14.565  0.00  0.00    +0.009 A 
ATOM     12  C   UNL     1     -30.700 -13.495  14.682  0.00  0.00    +0.014 A 
BRANCH   7  14
ATOM     13  C   UNL     1     -27.948 -14.968  12.902  0.00  0.00    +0.277 C 
ATOM     14  O   UNL     1     -29.126 -15.062  13.697  0.00  0.00    -0.495 OA
ENDBRANCH   7  14
ENDBRANCH   5  12
ENDBRANCH   1   5
BRANCH   2  15
ATOM     15  C   UNL     1     -29.170 -10.872  18.663  0.00  0.00    +0.118 C 
BRANCH  15  16
ATOM     16  C   UNL     1     -30.552 -10.791  19.381  0.00  0.00    +0.098 C 
ATOM     17  C   UNL     1     -30.763 -12.062  20.239  0.00  0.00    +0.028 C 
BRANCH  16  18
ATOM     18  C   UNL     1     -31.663 -10.576  18.331  0.00  0.00    -0.030 A 
ATOM     19  C   UNL     1     -31.669  -9.475  17.441  0.00  0.00    +0.005 A 
ATOM     20  C   UNL     1     -32.729  -9.283  16.548  0.00  0.00    +0.000 A 
ATOM     21  C   UNL     1     -33.804 -10.173  16.530  0.00  0.00    +0.000 A 
ATOM     22  C   UNL     1     -33.828 -11.252  17.414  0.00  0.00    +0.000 A 
ATOM     23  C   UNL     1     -32.773 -11.451  18.310  0.00  0.00    +0.005 A 
ENDBRANCH  16  18
BRANCH  16  24
ATOM     24  C   UNL     1     -30.571  -9.622  20.354  0.00  0.00    +0.316 C 
ATOM     25  O   UNL     1     -31.358  -9.608  21.339  0.00  0.00    -0.250 OA
BRANCH  24  26
ATOM     26  O   UNL     1     -29.750  -8.520  20.124  0.00  0.00    -0.480 OA
ATOM     27  H   UNL     1     -29.510  -7.884  20.875  0.00  0.00    +0.295 HD
ENDBRANCH  24  26
ENDBRANCH  16  24
ENDBRANCH  15  16
ENDBRANCH   2  15
TORSDOF 8
ENDMDL
MODEL 4
REMARK VINA RESULT:    -4.892      3.073      4.612
REMARK INTER + INTRA:          -8.637
REMARK INTER:                  -6.434
REMARK INTRA:                  -2.203
REMARK UNBOUND:                -1.601
REMARK  Name = 
REMARK  11 active torsions:
REMARK  status: ('A' for Active; 'I' for Inactive)
REMARK    1  A    between atoms: C_1  and  O_2
REMARK    2  A    between atoms: O_2  and  C_3
REMARK    3  A    between atoms: C_8  and  C_9
REMARK    4  A    between atoms: C_9  and  C_10
REMARK    5  A    between atoms: C_9  and  N_11
REMARK    6  A    between atoms: C_12  and  C_14
REMARK    7  A    between atoms: C_14  and  C_15
REMARK    8  A    between atoms: C_15  and  C_16
REMARK    9  A    between atoms: C_15  and  C_17
REMARK   10  A    between atoms: C_15  and  C_20
REMARK   11  A    between atoms: C_17  and  O_19
REMARK                            x       y       z     vdW  Elec       q    Type
REMARK                         _______ _______ _______ _____ _____    ______ ____
ROOT
ATOM      1  N   UNL     1     -32.724 -12.288  15.917  0.00  0.00    -0.309 N 
ATOM      2  C   UNL     1     -33.989 -11.799  16.383  0.00  0.00    +0.215 C 
ATOM      3  O   UNL     1     -35.040 -12.035  15.729  0.00  0.00    -0.276 OA
ATOM      4  H   UNL     1     -31.892 -12.188  16.544  0.00  0.00    +0.149 HD
ENDROOT
BRANCH   1   5
ATOM      5  C   UNL     1     -32.551 -12.854  14.575  0.00  0.00    +0.104 C 
ATOM      6  C   UNL     1     -32.638 -11.753  13.517  0.00  0.00    +0.033 C 
BRANCH   5  12
ATOM      7  C   UNL     1     -30.644 -14.208  15.580  0.00  0.00    +0.125 A 
ATOM      8  C   UNL     1     -29.425 -14.900  15.439  0.00  0.00    +0.046 A 
ATOM      9  C   UNL     1     -28.799 -14.982  14.193  0.00  0.00    +0.004 A 
ATOM     10  C   UNL     1     -29.388 -14.396  13.074  0.00  0.00    +0.001 A 
ATOM     11  C   UNL     1     -30.601 -13.719  13.194  0.00  0.00    +0.009 A 
ATOM     12  C   UNL     1     -31.228 -13.590  14.450  0.00  0.00    +0.014 A 
BRANCH   7  14
ATOM     13  C   UNL     1     -30.642 -14.011  18.077  0.00  0.00    +0.277 C 
ATOM     14  O   UNL     1     -31.301 -14.121  16.819  0.00  0.00    -0.495 OA
ENDBRANCH   7  14
ENDBRANCH   5  12
ENDBRANCH   1   5
BRANCH   2  15
ATOM     15  C   UNL     1     -34.061 -10.954  17.628  0.00  0.00    +0.118 C 
BRANCH  15  16
ATOM     16  C   UNL     1     -33.288  -9.606  17.496  0.00  0.00    +0.098 C 
ATOM     17  C   UNL     1     -33.526  -9.010  16.086  0.00  0.00    +0.028 C 
BRANCH  16  18
ATOM     18  C   UNL     1     -31.796  -9.837  17.813  0.00  0.00    -0.030 A 
ATOM     19  C   UNL     1     -30.791  -9.816  16.815  0.00  0.00    +0.005 A 
ATOM     20  C   UNL     1     -29.459 -10.095  17.135  0.00  0.00    +0.000 A 
ATOM     21  C   UNL     1     -29.101 -10.409  18.447  0.00  0.00    +0.000 A 
ATOM     22  C   UNL     1     -30.079 -10.458  19.441  0.00  0.00    +0.000 A 
ATOM     23  C   UNL     1     -31.413 -10.181  19.130  0.00  0.00    +0.005 A 
ENDBRANCH  16  18
BRANCH  16  24
ATOM     24  C   UNL     1     -33.842  -8.585  18.480  0.00  0.00    +0.316 C 
ATOM     25  O   UNL     1     -33.407  -7.403  18.502  0.00  0.00    -0.250 OA
BRANCH  24  26
ATOM     26  O   UNL     1     -34.800  -8.976  19.412  0.00  0.00    -0.480 OA
ATOM     27  H   UNL     1     -35.657  -9.428  19.118  0.00  0.00    +0.295 HD
ENDBRANCH  24  26
ENDBRANCH  16  24
ENDBRANCH  15  16
ENDBRANCH   2  15
TORSDOF 8
ENDMDL
MODEL 5
REMARK VINA RESULT:    -4.879      2.287      4.377
REMARK INTER + INTRA:          -8.619
REMARK INTER:                  -6.539
REMARK INTRA:                  -2.080
REMARK UNBOUND:                -1.601
REMARK  Name = 
REMARK  11 active torsions:
REMARK  status: ('A' for Active; 'I' for Inactive)
REMARK    1  A    between atoms: C_1  and  O_2
REMARK    2  A    between atoms: O_2  and  C_3
REMARK    3  A    between atoms: C_8  and  C_9
REMARK    4  A    between atoms: C_9  and  C_10
REMARK    5  A    between atoms: C_9  and  N_11
REMARK    6  A    between atoms: C_12  and  C_14
REMARK    7  A    between atoms: C_14  and  C_15
REMARK    8  A    between atoms: C_15  and  C_16
REMARK    9  A    between atoms: C_15  and  C_17
REMARK   10  A    between atoms: C_15  and  C_20
REMARK   11  A    between atoms: C_17  and  O_19
REMARK                            x       y       z     vdW  Elec       q    Type
REMARK                         _______ _______ _______ _____ _____    ______ ____
ROOT
ATOM      1  N   UNL     1     -31.133 -10.768  17.870  0.00  0.00    -0.309 N 
ATOM      2  C   UNL     1     -30.207 -10.546  18.942  0.00  0.00    +0.215 C 
ATOM      3  O   UNL     1     -29.736  -9.395  19.145  0.00  0.00    -0.276 OA
ATOM      4  H   UNL     1     -31.604 -11.700  17.807  0.00  0.00    +0.149 HD
ENDROOT
BRANCH   1   5
ATOM      5  C   UNL     1     -31.383  -9.762  16.832  0.00  0.00    +0.104 C 
ATOM      6  C   UNL     1     -30.091  -9.438  16.081  0.00  0.00    +0.033 C 
BRANCH   5  12
ATOM      7  C   UNL     1     -33.668  -9.520  15.736  0.00  0.00    +0.125 A 
ATOM      8  C   UNL     1     -34.636  -9.959  14.810  0.00  0.00    +0.046 A 
ATOM      9  C   UNL     1     -34.393 -11.077  14.009  0.00  0.00    +0.004 A 
ATOM     10  C   UNL     1     -33.179 -11.756  14.106  0.00  0.00    +0.001 A 
ATOM     11  C   UNL     1     -32.206 -11.328  15.008  0.00  0.00    +0.009 A 
ATOM     12  C   UNL     1     -32.448 -10.227  15.854  0.00  0.00    +0.014 A 
BRANCH   7  14
ATOM     13  C   UNL     1     -34.947  -8.257  17.480  0.00  0.00    +0.277 C 
ATOM     14  O   UNL     1     -33.882  -8.391  16.545  0.00  0.00    -0.495 OA
ENDBRANCH   7  14
ENDBRANCH   5  12
ENDBRANCH   1   5
BRANCH   2  15
ATOM     15  C   UNL     1     -29.751 -11.698  19.797  0.00  0.00    +0.118 C 
BRANCH  15  16
ATOM     16  C   UNL     1     -28.740 -12.637  19.069  0.00  0.00    +0.098 C 
ATOM     17  C   UNL     1     -27.531 -11.806  18.571  0.00  0.00    +0.028 C 
BRANCH  16  18
ATOM     18  C   UNL     1     -29.466 -13.391  17.936  0.00  0.00    -0.030 A 
ATOM     19  C   UNL     1     -28.946 -13.479  16.621  0.00  0.00    +0.005 A 
ATOM     20  C   UNL     1     -29.667 -14.117  15.607  0.00  0.00    +0.000 A 
ATOM     21  C   UNL     1     -30.921 -14.669  15.875  0.00  0.00    +0.000 A 
ATOM     22  C   UNL     1     -31.461 -14.574  17.158  0.00  0.00    +0.000 A 
ATOM     23  C   UNL     1     -30.747 -13.937  18.177  0.00  0.00    +0.005 A 
ENDBRANCH  16  18
BRANCH  16  24
ATOM     24  C   UNL     1     -28.173 -13.656  20.046  0.00  0.00    +0.316 C 
ATOM     25  O   UNL     1     -28.714 -13.853  21.167  0.00  0.00    -0.250 OA
BRANCH  24  26
ATOM     26  O   UNL     1     -27.002 -14.341  19.725  0.00  0.00    -0.480 OA
ATOM     27  H   UNL     1     -26.606 -15.021  20.362  0.00  0.00    +0.295 HD
ENDBRANCH  24  26
ENDBRANCH  16  24
ENDBRANCH  15  16
ENDBRANCH   2  15
TORSDOF 8
ENDMDL
MODEL 6
REMARK VINA RESULT:    -4.842      1.618      3.030
REMARK INTER + INTRA:          -8.566
REMARK INTER:                  -6.369
REMARK INTRA:                  -2.197
REMARK UNBOUND:                -1.601
REMARK  Name = 
REMARK  11 active torsions:
REMARK  status: ('A' for Active; 'I' for Inactive)
REMARK    1  A    between atoms: C_1  and  O_2
REMARK    2  A    between atoms: O_2  and  C_3
REMARK    3  A    between atoms: C_8  and  C_9
REMARK    4  A    between atoms: C_9  and  C_10
REMARK    5  A    between atoms: C_9  and  N_11
REMARK    6  A    between atoms: C_12  and  C_14
REMARK    7  A    between atoms: C_14  and  C_15
REMARK    8  A    between atoms: C_15  and  C_16
REMARK    9  A    between atoms: C_15  and  C_17
REMARK   10  A    between atoms: C_15  and  C_20
REMARK   11  A    between atoms: C_17  and  O_19
REMARK                            x       y       z     vdW  Elec       q    Type
REMARK                         _______ _______ _______ _____ _____    ______ ____
ROOT
ATOM      1  N   UNL     1     -31.743 -12.159  17.327  0.00  0.00    -0.309 N 
ATOM      2  C   UNL     1     -32.663 -11.501  18.208  0.00  0.00    +0.215 C 
ATOM      3  O   UNL     1     -33.748 -11.039  17.762  0.00  0.00    -0.276 OA
ATOM      4  H   UNL     1     -30.916 -12.644  17.746  0.00  0.00    +0.149 HD
ENDROOT
BRANCH   1   5
ATOM      5  C   UNL     1     -31.889 -12.113  15.868  0.00  0.00    +0.104 C 
ATOM      6  C   UNL     1     -31.571 -10.711  15.345  0.00  0.00    +0.033 C 
BRANCH   5  12
ATOM      7  C   UNL     1     -31.187 -13.459  13.825  0.00  0.00    +0.125 A 
ATOM      8  C   UNL     1     -30.335 -14.397  13.209  0.00  0.00    +0.046 A 
ATOM      9  C   UNL     1     -29.304 -14.999  13.933  0.00  0.00    +0.004 A 
ATOM     10  C   UNL     1     -29.096 -14.658  15.270  0.00  0.00    +0.001 A 
ATOM     11  C   UNL     1     -29.923 -13.722  15.890  0.00  0.00    +0.009 A 
ATOM     12  C   UNL     1     -30.994 -13.135  15.188  0.00  0.00    +0.014 A 
BRANCH   7  14
ATOM     13  C   UNL     1     -32.868 -13.380  11.970  0.00  0.00    +0.277 C 
ATOM     14  O   UNL     1     -32.224 -12.830  13.115  0.00  0.00    -0.495 OA
ENDBRANCH   7  14
ENDBRANCH   5  12
ENDBRANCH   1   5
BRANCH   2  15
ATOM     15  C   UNL     1     -32.314 -11.311  19.660  0.00  0.00    +0.118 C 
BRANCH  15  16
ATOM     16  C   UNL     1     -31.060 -10.409  19.874  0.00  0.00    +0.098 C 
ATOM     17  C   UNL     1     -31.156  -9.166  18.956  0.00  0.00    +0.028 C 
BRANCH  16  18
ATOM     18  C   UNL     1     -29.783 -11.242  19.635  0.00  0.00    -0.030 A 
ATOM     19  C   UNL     1     -28.799 -10.877  18.684  0.00  0.00    +0.005 A 
ATOM     20  C   UNL     1     -27.689 -11.695  18.454  0.00  0.00    +0.000 A 
ATOM     21  C   UNL     1     -27.539 -12.893  19.153  0.00  0.00    +0.000 A 
ATOM     22  C   UNL     1     -28.508 -13.283  20.078  0.00  0.00    +0.000 A 
ATOM     23  C   UNL     1     -29.621 -12.472  20.315  0.00  0.00    +0.005 A 
ENDBRANCH  16  18
BRANCH  16  24
ATOM     24  C   UNL     1     -31.033  -9.876  21.299  0.00  0.00    +0.316 C 
ATOM     25  O   UNL     1     -32.026 -10.013  22.062  0.00  0.00    -0.250 OA
BRANCH  24  26
ATOM     26  O   UNL     1     -29.919  -9.171  21.750  0.00  0.00    -0.480 OA
ATOM     27  H   UNL     1     -29.808  -8.947  22.731  0.00  0.00    +0.295 HD
ENDBRANCH  24  26
ENDBRANCH  16  24
ENDBRANCH  15  16
ENDBRANCH   2  15
TORSDOF 8
ENDMDL
MODEL 7
REMARK VINA RESULT:    -4.719      1.917      3.727
REMARK INTER + INTRA:          -8.389
REMARK INTER:                  -6.954
REMARK INTRA:                  -1.435
REMARK UNBOUND:                -1.601
REMARK  Name = 
REMARK  11 active torsions:
REMARK  status: ('A' for Active; 'I' for Inactive)
REMARK    1  A    between atoms: C_1  and  O_2
REMARK    2  A    between atoms: O_2  and  C_3
REMARK    3  A    between atoms: C_8  and  C_9
REMARK    4  A    between atoms: C_9  and  C_10
REMARK    5  A    between atoms: C_9  and  N_11
REMARK    6  A    between atoms: C_12  and  C_14
REMARK    7  A    between atoms: C_14  and  C_15
REMARK    8  A    between atoms: C_15  and  C_16
REMARK    9  A    between atoms: C_15  and  C_17
REMARK   10  A    between atoms: C_15  and  C_20
REMARK   11  A    between atoms: C_17  and  O_19
REMARK                            x       y       z     vdW  Elec       q    Type
REMARK                         _______ _______ _______ _____ _____    ______ ____
ROOT
ATOM      1  N   UNL     1     -30.465 -13.221  15.957  0.00  0.00    -0.309 N 
ATOM      2  C   UNL     1     -29.417 -13.578  16.868  0.00  0.00    +0.215 C 
ATOM      3  O   UNL     1     -28.274 -13.883  16.432  0.00  0.00    -0.276 OA
ATOM      4  H   UNL     1     -31.360 -12.849  16.351  0.00  0.00    +0.149 HD
ENDROOT
BRANCH   1   5
ATOM      5  C   UNL     1     -30.346 -13.425  14.509  0.00  0.00    +0.104 C 
ATOM      6  C   UNL     1     -30.041 -14.893  14.202  0.00  0.00    +0.033 C 
BRANCH   5  12
ATOM      7  C   UNL     1     -32.349 -11.880  14.237  0.00  0.00    +0.125 A 
ATOM      8  C   UNL     1     -33.508 -11.487  13.538  0.00  0.00    +0.046 A 
ATOM      9  C   UNL     1     -33.921 -12.187  12.402  0.00  0.00    +0.004 A 
ATOM     10  C   UNL     1     -33.174 -13.270  11.938  0.00  0.00    +0.001 A 
ATOM     11  C   UNL     1     -32.018 -13.663  12.611  0.00  0.00    +0.009 A 
ATOM     12  C   UNL     1     -31.608 -12.995  13.782  0.00  0.00    +0.014 A 
BRANCH   7  14
ATOM     13  C   UNL     1     -32.569 -10.060  15.944  0.00  0.00    +0.277 C 
ATOM     14  O   UNL     1     -31.906 -11.185  15.375  0.00  0.00    -0.495 OA
ENDBRANCH   7  14
ENDBRANCH   5  12
ENDBRANCH   1   5
BRANCH   2  15
ATOM     15  C   UNL     1     -29.691 -13.642  18.347  0.00  0.00    +0.118 C 
BRANCH  15  16
ATOM     16  C   UNL     1     -29.124 -12.415  19.127  0.00  0.00    +0.098 C 
ATOM     17  C   UNL     1     -27.809 -12.819  19.839  0.00  0.00    +0.028 C 
BRANCH  16  18
ATOM     18  C   UNL     1     -30.199 -11.882  20.096  0.00  0.00    -0.030 A 
ATOM     19  C   UNL     1     -31.586 -12.073  19.878  0.00  0.00    +0.005 A 
ATOM     20  C   UNL     1     -32.530 -11.517  20.748  0.00  0.00    +0.000 A 
ATOM     21  C   UNL     1     -32.117 -10.756  21.842  0.00  0.00    +0.000 A 
ATOM     22  C   UNL     1     -30.756 -10.537  22.062  0.00  0.00    +0.000 A 
ATOM     23  C   UNL     1     -29.807 -11.088  21.198  0.00  0.00    +0.005 A 
ENDBRANCH  16  18
BRANCH  16  24
ATOM     24  C   UNL     1     -28.749 -11.304  18.157  0.00  0.00    +0.316 C 
ATOM     25  O   UNL     1     -27.568 -10.869  18.093  0.00  0.00    -0.250 OA
BRANCH  24  26
ATOM     26  O   UNL     1     -29.736 -10.714  17.370  0.00  0.00    -0.480 OA
ATOM     27  H   UNL     1     -30.662 -11.118  17.308  0.00  0.00    +0.295 HD
ENDBRANCH  24  26
ENDBRANCH  16  24
ENDBRANCH  15  16
ENDBRANCH   2  15
TORSDOF 8
ENDMDL
MODEL 8
REMARK VINA RESULT:    -4.694      1.856      2.740
REMARK INTER + INTRA:          -8.353
REMARK INTER:                  -7.218
REMARK INTRA:                  -1.135
REMARK UNBOUND:                -1.601
REMARK  Name = 
REMARK  11 active torsions:
REMARK  status: ('A' for Active; 'I' for Inactive)
REMARK    1  A    between atoms: C_1  and  O_2
REMARK    2  A    between atoms: O_2  and  C_3
REMARK    3  A    between atoms: C_8  and  C_9
REMARK    4  A    between atoms: C_9  and  C_10
REMARK    5  A    between atoms: C_9  and  N_11
REMARK    6  A    between atoms: C_12  and  C_14
REMARK    7  A    between atoms: C_14  and  C_15
REMARK    8  A    between atoms: C_15  and  C_16
REMARK    9  A    between atoms: C_15  and  C_17
REMARK   10  A    between atoms: C_15  and  C_20
REMARK   11  A    between atoms: C_17  and  O_19
REMARK                            x       y       z     vdW  Elec       q    Type
REMARK                         _______ _______ _______ _____ _____    ______ ____
ROOT
ATOM      1  N   UNL     1     -33.085 -11.547  16.570  0.00  0.00    -0.309 N 
ATOM      2  C   UNL     1     -33.286 -10.860  17.812  0.00  0.00    +0.215 C 
ATOM      3  O   UNL     1     -34.273 -10.090  17.959  0.00  0.00    -0.276 OA
ATOM      4  H   UNL     1     -32.335 -12.275  16.521  0.00  0.00    +0.149 HD
ENDROOT
BRANCH   1   5
ATOM      5  C   UNL     1     -33.845 -11.214  15.360  0.00  0.00    +0.104 C 
ATOM      6  C   UNL     1     -33.767  -9.712  15.079  0.00  0.00    +0.033 C 
BRANCH   5  12
ATOM      7  C   UNL     1     -32.051 -12.567  14.166  0.00  0.00    +0.125 A 
ATOM      8  C   UNL     1     -31.611 -13.301  13.046  0.00  0.00    +0.046 A 
ATOM      9  C   UNL     1     -32.444 -13.468  11.938  0.00  0.00    +0.004 A 
ATOM     10  C   UNL     1     -33.729 -12.926  11.941  0.00  0.00    +0.001 A 
ATOM     11  C   UNL     1     -34.184 -12.208  13.046  0.00  0.00    +0.009 A 
ATOM     12  C   UNL     1     -33.344 -11.993  14.157  0.00  0.00    +0.014 A 
BRANCH   7  14
ATOM     13  C   UNL     1     -30.294 -13.353  15.770  0.00  0.00    +0.277 C 
ATOM     14  O   UNL     1     -31.236 -12.394  15.298  0.00  0.00    -0.495 OA
ENDBRANCH   7  14
ENDBRANCH   5  12
ENDBRANCH   1   5
BRANCH   2  15
ATOM     15  C   UNL     1     -32.289 -11.013  18.930  0.00  0.00    +0.118 C 
BRANCH  15  16
ATOM     16  C   UNL     1     -31.026 -10.115  18.749  0.00  0.00    +0.098 C 
ATOM     17  C   UNL     1     -31.044  -9.478  17.337  0.00  0.00    +0.028 C 
BRANCH  16  18
ATOM     18  C   UNL     1     -29.759 -10.953  19.019  0.00  0.00    -0.030 A 
ATOM     19  C   UNL     1     -28.599 -10.866  18.211  0.00  0.00    +0.005 A 
ATOM     20  C   UNL     1     -27.495 -11.691  18.453  0.00  0.00    +0.000 A 
ATOM     21  C   UNL     1     -27.526 -12.623  19.491  0.00  0.00    +0.000 A 
ATOM     22  C   UNL     1     -28.668 -12.740  20.285  0.00  0.00    +0.000 A 
ATOM     23  C   UNL     1     -29.775 -11.920  20.050  0.00  0.00    +0.005 A 
ENDBRANCH  16  18
BRANCH  16  24
ATOM     24  C   UNL     1     -31.060  -8.955  19.732  0.00  0.00    +0.316 C 
ATOM     25  O   UNL     1     -32.155  -8.497  20.158  0.00  0.00    -0.250 OA
BRANCH  24  26
ATOM     26  O   UNL     1     -29.869  -8.347  20.123  0.00  0.00    -0.480 OA
ATOM     27  H   UNL     1     -29.070  -8.902  20.402  0.00  0.00    +0.295 HD
ENDBRANCH  24  26
ENDBRANCH  16  24
ENDBRANCH  15  16
ENDBRANCH   2  15
TORSDOF 8
ENDMDL
