MODEL 1
REMARK VINA RESULT:    -4.525      0.000      0.000
REMARK INTER + INTRA:          -5.782
REMARK INTER:                  -5.583
REMARK INTRA:                  -0.200
REMARK UNBOUND:                -0.200
REMARK  Name = 
REMARK  4 active torsions:
REMARK  status: ('A' for Active; 'I' for Inactive)
REMARK    1  A    between atoms: C_2  and  C_3
REMARK    2  A    between atoms: N_13  and  C_14
REMARK    3  A    between atoms: C_14  and  C_15
REMARK    4  A    between atoms: C_19  and  N_21
REMARK                            x       y       z     vdW  Elec       q    Type
REMARK                         _______ _______ _______ _____ _____    ______ ____
ROOT
ATOM      1  C   UNL     1     -27.319 -13.218  20.267  0.00  0.00    +0.052 A 
ATOM      2  C   UNL     1     -26.670 -12.310  19.420  0.00  0.00    +0.021 A 
ATOM      3  C   UNL     1     -27.394 -11.608  18.451  0.00  0.00    +0.029 A 
ATOM      4  C   UNL     1     -28.772 -11.811  18.323  0.00  0.00    +0.073 A 
ATOM      5  N   UNL     1     -29.478 -11.132  17.380  0.00  0.00    -0.232 NA
ATOM      6  C   UNL     1     -30.820 -11.297  17.216  0.00  0.00    +0.120 A 
ATOM      7  C   UNL     1     -31.509 -12.195  18.051  0.00  0.00    +0.044 A 
ATOM      8  C   UNL     1     -30.811 -12.909  19.027  0.00  0.00    +0.013 A 
ATOM      9  C   UNL     1     -29.431 -12.724  19.173  0.00  0.00    +0.002 A 
ATOM     10  C   UNL     1     -28.700 -13.426  20.144  0.00  0.00    +0.029 A 
ATOM     11  N   UNL     1     -31.489 -10.541  16.192  0.00  0.00    -0.325 N 
ATOM     12  H   UNL     1     -30.933  -9.825  15.672  0.00  0.00    +0.148 HD
ENDROOT
BRANCH   1  14
ATOM     13  N   UNL     1     -25.965 -14.515  22.062  0.00  0.00    -0.191 NA
ATOM     14  C   UNL     1     -26.569 -13.937  21.263  0.00  0.00    +0.099 C 
ENDBRANCH   1  14
BRANCH  11  15
ATOM     15  C   UNL     1     -32.881 -10.741  15.785  0.00  0.00    +0.138 C 
BRANCH  15  16
ATOM     16  C   UNL     1     -32.956 -11.594  14.545  0.00  0.00    -0.028 A 
ATOM     17  C   UNL     1     -34.107 -11.584  13.742  0.00  0.00    +0.005 A 
ATOM     18  C   UNL     1     -34.168 -12.372  12.591  0.00  0.00    +0.003 A 
ATOM     19  C   UNL     1     -33.082 -13.169  12.226  0.00  0.00    +0.033 A 
ATOM     20  C   UNL     1     -31.914 -13.184  13.007  0.00  0.00    +0.127 A 
ATOM     21  C   UNL     1     -31.859 -12.387  14.167  0.00  0.00    +0.038 A 
BRANCH  20  22
ATOM     22  N   UNL     1     -30.794 -14.003  12.626  0.00  0.00    +0.056 N 
ATOM     23  O   UNL     1     -29.517 -13.664  13.011  0.00  0.00    -0.126 OA
ATOM     24  O   UNL     1     -30.960 -15.032  11.938  0.00  0.00    -0.126 OA
ENDBRANCH  20  22
ENDBRANCH  15  16
ENDBRANCH  11  15
TORSDOF 4
ENDMDL
MODEL 2
REMARK VINA RESULT:    -4.354      3.867      4.789
REMARK INTER + INTRA:          -5.571
REMARK INTER:                  -5.174
REMARK INTRA:                  -0.397
REMARK UNBOUND:                -0.200
REMARK  Name = 
REMARK  4 active torsions:
REMARK  status: ('A' for Active; 'I' for Inactive)
REMARK    1  A    between atoms: C_2  and  C_3
REMARK    2  A    between atoms: N_13  and  C_14
REMARK    3  A    between atoms: C_14  and  C_15
REMARK    4  A    between atoms: C_19  and  N_21
REMARK                            x       y       z     vdW  Elec       q    Type
REMARK                         _______ _______ _______ _____ _____    ______ ____
ROOT
ATOM      1  C   UNL     1     -27.417 -13.382  20.245  0.00  0.00    +0.052 A 
ATOM      2  C   UNL     1     -28.419 -13.357  21.224  0.00  0.00    +0.021 A 
ATOM      3  C   UNL     1     -29.756 -13.171  20.859  0.00  0.00    +0.029 A 
ATOM      4  C   UNL     1     -30.099 -13.009  19.513  0.00  0.00    +0.073 A 
ATOM      5  N   UNL     1     -31.398 -12.826  19.155  0.00  0.00    -0.232 NA
ATOM      6  C   UNL     1     -31.780 -12.661  17.859  0.00  0.00    +0.120 A 
ATOM      7  C   UNL     1     -30.804 -12.687  16.846  0.00  0.00    +0.044 A 
ATOM      8  C   UNL     1     -29.461 -12.871  17.182  0.00  0.00    +0.013 A 
ATOM      9  C   UNL     1     -29.093 -13.034  18.523  0.00  0.00    +0.002 A 
ATOM     10  C   UNL     1     -27.753 -13.221  18.894  0.00  0.00    +0.029 A 
ATOM     11  N   UNL     1     -33.175 -12.470  17.568  0.00  0.00    -0.325 N 
ATOM     12  H   UNL     1     -33.854 -12.554  18.358  0.00  0.00    +0.148 HD
ENDROOT
BRANCH   1  14
ATOM     13  N   UNL     1     -24.938 -13.729  20.934  0.00  0.00    -0.191 NA
ATOM     14  C   UNL     1     -26.042 -13.574  20.627  0.00  0.00    +0.099 C 
ENDBRANCH   1  14
BRANCH  11  15
ATOM     15  C   UNL     1     -33.710 -12.107  16.254  0.00  0.00    +0.138 C 
BRANCH  15  16
ATOM     16  C   UNL     1     -34.072 -10.646  16.211  0.00  0.00    -0.028 A 
ATOM     17  C   UNL     1     -34.297 -10.003  14.984  0.00  0.00    +0.005 A 
ATOM     18  C   UNL     1     -34.637  -8.650  14.951  0.00  0.00    +0.003 A 
ATOM     19  C   UNL     1     -34.764  -7.928  16.139  0.00  0.00    +0.033 A 
ATOM     20  C   UNL     1     -34.556  -8.553  17.379  0.00  0.00    +0.127 A 
ATOM     21  C   UNL     1     -34.213  -9.919  17.405  0.00  0.00    +0.038 A 
BRANCH  20  22
ATOM     22  N   UNL     1     -34.693  -7.807  18.603  0.00  0.00    +0.056 N 
ATOM     23  O   UNL     1     -34.444  -8.405  19.817  0.00  0.00    -0.126 OA
ATOM     24  O   UNL     1     -35.041  -6.608  18.584  0.00  0.00    -0.126 OA
ENDBRANCH  20  22
ENDBRANCH  15  16
ENDBRANCH  11  15
TORSDOF 4
ENDMDL
MODEL 3
REMARK VINA RESULT:    -4.222      1.453      1.910
REMARK INTER + INTRA:          -5.408
REMARK INTER:                  -5.035
REMARK INTRA:                  -0.374
REMARK UNBOUND:                -0.200
REMARK  Name = 
REMARK  4 active torsions:
REMARK  status: ('A' for Active; 'I' for Inactive)
REMARK    1  A    between atoms: C_2  and  C_3
REMARK    2  A    between atoms: N_13  and  C_14
REMARK    3  A    between atoms: C_14  and  C_15
REMARK    4  A    between atoms: C_19  and  N_21
REMARK                            x       y       z     vdW  Elec       q    Type
REMARK                         _______ _______ _______ _____ _____    ______ ____
ROOT
ATOM      1  C   UNL     1     -27.312 -13.402  20.271  0.00  0.00    +0.052 A 
ATOM      2  C   UNL     1     -26.808 -12.449  19.376  0.00  0.00    +0.021 A 
ATOM      3  C   UNL     1     -27.682 -11.657  18.626  0.00  0.00    +0.029 A 
ATOM      4  C   UNL     1     -29.065 -11.813  18.765  0.00  0.00    +0.073 A 
ATOM      5  N   UNL     1     -29.917 -11.045  18.035  0.00  0.00    -0.232 NA
ATOM      6  C   UNL     1     -31.270 -11.163  18.135  0.00  0.00    +0.120 A 
ATOM      7  C   UNL     1     -31.814 -12.104  19.028  0.00  0.00    +0.044 A 
ATOM      8  C   UNL     1     -30.965 -12.908  19.790  0.00  0.00    +0.013 A 
ATOM      9  C   UNL     1     -29.577 -12.771  19.666  0.00  0.00    +0.002 A 
ATOM     10  C   UNL     1     -28.696 -13.564  20.417  0.00  0.00    +0.029 A 
ATOM     11  N   UNL     1     -32.099 -10.313  17.323  0.00  0.00    -0.325 N 
ATOM     12  H   UNL     1     -31.630  -9.574  16.752  0.00  0.00    +0.148 HD
ENDROOT
BRANCH   1  14
ATOM     13  N   UNL     1     -25.680 -14.867  21.660  0.00  0.00    -0.191 NA
ATOM     14  C   UNL     1     -26.407 -14.215  21.042  0.00  0.00    +0.099 C 
ENDBRANCH   1  14
BRANCH  11  15
ATOM     15  C   UNL     1     -33.551 -10.445  17.193  0.00  0.00    +0.138 C 
BRANCH  15  16
ATOM     16  C   UNL     1     -33.946 -10.593  15.747  0.00  0.00    -0.028 A 
ATOM     17  C   UNL     1     -34.704  -9.598  15.111  0.00  0.00    +0.005 A 
ATOM     18  C   UNL     1     -35.062  -9.737  13.769  0.00  0.00    +0.003 A 
ATOM     19  C   UNL     1     -34.661 -10.863  13.047  0.00  0.00    +0.033 A 
ATOM     20  C   UNL     1     -33.890 -11.865  13.660  0.00  0.00    +0.127 A 
ATOM     21  C   UNL     1     -33.533 -11.718  15.015  0.00  0.00    +0.038 A 
BRANCH  20  22
ATOM     22  N   UNL     1     -33.474 -13.023  12.913  0.00  0.00    +0.056 N 
ATOM     23  O   UNL     1     -34.286 -13.554  11.938  0.00  0.00    -0.126 OA
ATOM     24  O   UNL     1     -32.371 -13.565  13.138  0.00  0.00    -0.126 OA
ENDBRANCH  20  22
ENDBRANCH  15  16
ENDBRANCH  11  15
TORSDOF 4
ENDMDL
MODEL 4
REMARK VINA RESULT:    -4.040      4.440      7.236
REMARK INTER + INTRA:          -5.185
REMARK INTER:                  -4.802
REMARK INTRA:                  -0.383
REMARK UNBOUND:                -0.200
REMARK  Name = 
REMARK  4 active torsions:
REMARK  status: ('A' for Active; 'I' for Inactive)
REMARK    1  A    between atoms: C_2  and  C_3
REMARK    2  A    between atoms: N_13  and  C_14
REMARK    3  A    between atoms: C_14  and  C_15
REMARK    4  A    between atoms: C_19  and  N_21
REMARK                            x       y       z     vdW  Elec       q    Type
REMARK                         _______ _______ _______ _____ _____    ______ ____
ROOT
ATOM      1  C   UNL     1     -29.079 -14.300  13.702  0.00  0.00    +0.052 A 
ATOM      2  C   UNL     1     -30.406 -14.065  13.319  0.00  0.00    +0.021 A 
ATOM      3  C   UNL     1     -31.350 -13.655  14.265  0.00  0.00    +0.029 A 
ATOM      4  C   UNL     1     -30.973 -13.477  15.599  0.00  0.00    +0.073 A 
ATOM      5  N   UNL     1     -31.890 -13.080  16.522  0.00  0.00    -0.232 NA
ATOM      6  C   UNL     1     -31.571 -12.896  17.833  0.00  0.00    +0.120 A 
ATOM      7  C   UNL     1     -30.247 -13.115  18.255  0.00  0.00    +0.044 A 
ATOM      8  C   UNL     1     -29.284 -13.525  17.332  0.00  0.00    +0.013 A 
ATOM      9  C   UNL     1     -29.638 -13.712  15.991  0.00  0.00    +0.002 A 
ATOM     10  C   UNL     1     -28.694 -14.124  15.038  0.00  0.00    +0.029 A 
ATOM     11  N   UNL     1     -32.603 -12.477  18.743  0.00  0.00    -0.325 N 
ATOM     12  H   UNL     1     -33.540 -12.243  18.344  0.00  0.00    +0.148 HD
ENDROOT
BRANCH   1  14
ATOM     13  N   UNL     1     -27.333 -15.062  11.938  0.00  0.00    -0.191 NA
ATOM     14  C   UNL     1     -28.111 -14.723  12.723  0.00  0.00    +0.099 C 
ENDBRANCH   1  14
BRANCH  11  15
ATOM     15  C   UNL     1     -32.452 -12.410  20.198  0.00  0.00    +0.138 C 
BRANCH  15  16
ATOM     16  C   UNL     1     -32.815 -11.040  20.708  0.00  0.00    -0.028 A 
ATOM     17  C   UNL     1     -33.930 -10.863  21.543  0.00  0.00    +0.005 A 
ATOM     18  C   UNL     1     -34.259  -9.592  22.016  0.00  0.00    +0.003 A 
ATOM     19  C   UNL     1     -33.476  -8.488  21.671  0.00  0.00    +0.033 A 
ATOM     20  C   UNL     1     -32.348  -8.644  20.848  0.00  0.00    +0.127 A 
ATOM     21  C   UNL     1     -32.022  -9.930  20.373  0.00  0.00    +0.038 A 
BRANCH  20  22
ATOM     22  N   UNL     1     -31.539  -7.506  20.498  0.00  0.00    +0.056 N 
ATOM     23  O   UNL     1     -30.168  -7.607  20.463  0.00  0.00    -0.126 OA
ATOM     24  O   UNL     1     -32.068  -6.409  20.222  0.00  0.00    -0.126 OA
ENDBRANCH  20  22
ENDBRANCH  15  16
ENDBRANCH  11  15
TORSDOF 4
ENDMDL
MODEL 5
REMARK VINA RESULT:    -3.917      3.387      5.093
REMARK INTER + INTRA:          -5.033
REMARK INTER:                  -4.655
REMARK INTRA:                  -0.378
REMARK UNBOUND:                -0.200
REMARK  Name = 
REMARK  4 active torsions:
REMARK  status: ('A' for Active; 'I' for Inactive)
REMARK    1  A    between atoms: C_2  and  C_3
REMARK    2  A    between atoms: N_13  and  C_14
REMARK    3  A    between atoms: C_14  and  C_15
REMARK    4  A    between atoms: C_19  and  N_21
REMARK                            x       y       z     vdW  Elec       q    Type
REMARK                         _______ _______ _______ _____ _____    ______ ____
ROOT
ATOM      1  C   UNL     1     -31.932  -7.581  20.038  0.00  0.00    +0.052 A 
ATOM      2  C   UNL     1     -33.158  -7.972  19.484  0.00  0.00    +0.021 A 
ATOM      3  C   UNL     1     -33.277  -9.207  18.839  0.00  0.00    +0.029 A 
ATOM      4  C   UNL     1     -32.171 -10.058  18.745  0.00  0.00    +0.073 A 
ATOM      5  N   UNL     1     -32.283 -11.259  18.117  0.00  0.00    -0.232 NA
ATOM      6  C   UNL     1     -31.234 -12.119  17.998  0.00  0.00    +0.120 A 
ATOM      7  C   UNL     1     -29.989 -11.765  18.548  0.00  0.00    +0.044 A 
ATOM      8  C   UNL     1     -29.842 -10.538  19.197  0.00  0.00    +0.013 A 
ATOM      9  C   UNL     1     -30.934  -9.669  19.302  0.00  0.00    +0.002 A 
ATOM     10  C   UNL     1     -30.820  -8.429  19.948  0.00  0.00    +0.029 A 
ATOM     11  N   UNL     1     -31.439 -13.368  17.315  0.00  0.00    -0.325 N 
ATOM     12  H   UNL     1     -32.411 -13.606  17.013  0.00  0.00    +0.148 HD
ENDROOT
BRANCH   1  14
ATOM     13  N   UNL     1     -31.722  -5.286  21.234  0.00  0.00    -0.191 NA
ATOM     14  C   UNL     1     -31.816  -6.308  20.701  0.00  0.00    +0.099 C 
ENDBRANCH   1  14
BRANCH  11  15
ATOM     15  C   UNL     1     -30.373 -14.307  16.959  0.00  0.00    +0.138 C 
BRANCH  15  16
ATOM     16  C   UNL     1     -30.183 -14.355  15.465  0.00  0.00    -0.028 A 
ATOM     17  C   UNL     1     -29.063 -14.992  14.910  0.00  0.00    +0.005 A 
ATOM     18  C   UNL     1     -28.894 -15.038  13.525  0.00  0.00    +0.003 A 
ATOM     19  C   UNL     1     -29.845 -14.459  12.681  0.00  0.00    +0.033 A 
ATOM     20  C   UNL     1     -30.981 -13.828  13.215  0.00  0.00    +0.127 A 
ATOM     21  C   UNL     1     -31.144 -13.785  14.613  0.00  0.00    +0.038 A 
BRANCH  20  22
ATOM     22  N   UNL     1     -31.962 -13.236  12.343  0.00  0.00    +0.056 N 
ATOM     23  O   UNL     1     -33.062 -13.955  11.938  0.00  0.00    -0.126 OA
ATOM     24  O   UNL     1     -31.829 -12.062  11.938  0.00  0.00    -0.126 OA
ENDBRANCH  20  22
ENDBRANCH  15  16
ENDBRANCH  11  15
TORSDOF 4
ENDMDL
MODEL 6
REMARK VINA RESULT:    -3.913      4.612      7.162
REMARK INTER + INTRA:          -5.027
REMARK INTER:                  -4.546
REMARK INTRA:                  -0.481
REMARK UNBOUND:                -0.200
REMARK  Name = 
REMARK  4 active torsions:
REMARK  status: ('A' for Active; 'I' for Inactive)
REMARK    1  A    between atoms: C_2  and  C_3
REMARK    2  A    between atoms: N_13  and  C_14
REMARK    3  A    between atoms: C_14  and  C_15
REMARK    4  A    between atoms: C_19  and  N_21
REMARK                            x       y       z     vdW  Elec       q    Type
REMARK                         _______ _______ _______ _____ _____    ______ ____
ROOT
ATOM      1  C   UNL     1     -29.916 -14.145  14.268  0.00  0.00    +0.052 A 
ATOM      2  C   UNL     1     -29.071 -14.326  15.371  0.00  0.00    +0.021 A 
ATOM      3  C   UNL     1     -29.438 -13.835  16.628  0.00  0.00    +0.029 A 
ATOM      4  C   UNL     1     -30.652 -13.159  16.789  0.00  0.00    +0.073 A 
ATOM      5  N   UNL     1     -31.010 -12.678  18.010  0.00  0.00    -0.232 NA
ATOM      6  C   UNL     1     -32.180 -12.012  18.215  0.00  0.00    +0.120 A 
ATOM      7  C   UNL     1     -33.058 -11.817  17.134  0.00  0.00    +0.044 A 
ATOM      8  C   UNL     1     -32.717 -12.297  15.868  0.00  0.00    +0.013 A 
ATOM      9  C   UNL     1     -31.507 -12.974  15.682  0.00  0.00    +0.002 A 
ATOM     10  C   UNL     1     -31.134 -13.470  14.423  0.00  0.00    +0.029 A 
ATOM     11  N   UNL     1     -32.479 -11.534  19.538  0.00  0.00    -0.325 N 
ATOM     12  H   UNL     1     -31.827 -11.795  20.311  0.00  0.00    +0.148 HD
ENDROOT
BRANCH   1  14
ATOM     13  N   UNL     1     -29.226 -15.062  11.940  0.00  0.00    -0.191 NA
ATOM     14  C   UNL     1     -29.534 -14.654  12.977  0.00  0.00    +0.099 C 
ENDBRANCH   1  14
BRANCH  11  15
ATOM     15  C   UNL     1     -33.603 -10.657  19.871  0.00  0.00    +0.138 C 
BRANCH  15  16
ATOM     16  C   UNL     1     -33.185  -9.211  19.818  0.00  0.00    -0.028 A 
ATOM     17  C   UNL     1     -33.968  -8.267  19.136  0.00  0.00    +0.005 A 
ATOM     18  C   UNL     1     -33.578  -6.928  19.094  0.00  0.00    +0.003 A 
ATOM     19  C   UNL     1     -32.411  -6.515  19.739  0.00  0.00    +0.033 A 
ATOM     20  C   UNL     1     -31.618  -7.440  20.440  0.00  0.00    +0.127 A 
ATOM     21  C   UNL     1     -32.018  -8.790  20.477  0.00  0.00    +0.038 A 
BRANCH  20  22
ATOM     22  N   UNL     1     -30.417  -7.011  21.107  0.00  0.00    +0.056 N 
ATOM     23  O   UNL     1     -29.763  -5.870  20.705  0.00  0.00    -0.126 OA
ATOM     24  O   UNL     1     -29.948  -7.668  22.060  0.00  0.00    -0.126 OA
ENDBRANCH  20  22
ENDBRANCH  15  16
ENDBRANCH  11  15
TORSDOF 4
ENDMDL
MODEL 7
REMARK VINA RESULT:    -2.768      4.433      6.882
REMARK INTER + INTRA:          -3.614
REMARK INTER:                  -3.355
REMARK INTRA:                  -0.259
REMARK UNBOUND:                -0.200
REMARK  Name = 
REMARK  4 active torsions:
REMARK  status: ('A' for Active; 'I' for Inactive)
REMARK    1  A    between atoms: C_2  and  C_3
REMARK    2  A    between atoms: N_13  and  C_14
REMARK    3  A    between atoms: C_14  and  C_15
REMARK    4  A    between atoms: C_19  and  N_21
REMARK                            x       y       z     vdW  Elec       q    Type
REMARK                         _______ _______ _______ _____ _____    ______ ____
ROOT
ATOM      1  C   UNL     1     -29.963 -14.134  13.886  0.00  0.00    +0.052 A 
ATOM      2  C   UNL     1     -29.836 -14.676  15.172  0.00  0.00    +0.021 A 
ATOM      3  C   UNL     1     -30.610 -14.181  16.225  0.00  0.00    +0.029 A 
ATOM      4  C   UNL     1     -31.517 -13.140  15.999  0.00  0.00    +0.073 A 
ATOM      5  N   UNL     1     -32.270 -12.655  17.021  0.00  0.00    -0.232 NA
ATOM      6  C   UNL     1     -33.164 -11.642  16.850  0.00  0.00    +0.120 A 
ATOM      7  C   UNL     1     -33.326 -11.077  15.573  0.00  0.00    +0.044 A 
ATOM      8  C   UNL     1     -32.565 -11.552  14.503  0.00  0.00    +0.013 A 
ATOM      9  C   UNL     1     -31.650 -12.591  14.705  0.00  0.00    +0.002 A 
ATOM     10  C   UNL     1     -30.870 -13.092  13.652  0.00  0.00    +0.029 A 
ATOM     11  N   UNL     1     -33.919 -11.186  17.987  0.00  0.00    -0.325 N 
ATOM     12  H   UNL     1     -33.815 -11.713  18.884  0.00  0.00    +0.148 HD
ENDROOT
BRANCH   1  14
ATOM     13  N   UNL     1     -28.520 -15.062  11.937  0.00  0.00    -0.191 NA
ATOM     14  C   UNL     1     -29.163 -14.649  12.805  0.00  0.00    +0.099 C 
ENDBRANCH   1  14
BRANCH  11  15
ATOM     15  C   UNL     1     -34.778 -10.002  17.995  0.00  0.00    +0.138 C 
BRANCH  15  16
ATOM     16  C   UNL     1     -34.044  -8.814  18.560  0.00  0.00    -0.028 A 
ATOM     17  C   UNL     1     -34.702  -7.587  18.736  0.00  0.00    +0.005 A 
ATOM     18  C   UNL     1     -34.017  -6.492  19.265  0.00  0.00    +0.003 A 
ATOM     19  C   UNL     1     -32.675  -6.611  19.632  0.00  0.00    +0.033 A 
ATOM     20  C   UNL     1     -32.000  -7.834  19.477  0.00  0.00    +0.127 A 
ATOM     21  C   UNL     1     -32.697  -8.935  18.942  0.00  0.00    +0.038 A 
BRANCH  20  22
ATOM     22  N   UNL     1     -30.618  -7.956  19.860  0.00  0.00    +0.056 N 
ATOM     23  O   UNL     1     -29.855  -9.004  19.399  0.00  0.00    -0.126 OA
ATOM     24  O   UNL     1     -30.089  -7.116  20.618  0.00  0.00    -0.126 OA
ENDBRANCH  20  22
ENDBRANCH  15  16
ENDBRANCH  11  15
TORSDOF 4
ENDMDL
MODEL 8
REMARK VINA RESULT:    -2.459      1.528      2.280
REMARK INTER + INTRA:          -3.233
REMARK INTER:                  -2.910
REMARK INTRA:                  -0.323
REMARK UNBOUND:                -0.200
REMARK  Name = 
REMARK  4 active torsions:
REMARK  status: ('A' for Active; 'I' for Inactive)
REMARK    1  A    between atoms: C_2  and  C_3
REMARK    2  A    between atoms: N_13  and  C_14
REMARK    3  A    between atoms: C_14  and  C_15
REMARK    4  A    between atoms: C_19  and  N_21
REMARK                            x       y       z     vdW  Elec       q    Type
REMARK                         _______ _______ _______ _____ _____    ______ ____
ROOT
ATOM      1  C   UNL     1     -27.274 -13.120  20.163  0.00  0.00    +0.052 A 
ATOM      2  C   UNL     1     -28.433 -13.623  20.770  0.00  0.00    +0.021 A 
ATOM      3  C   UNL     1     -29.694 -13.203  20.337  0.00  0.00    +0.029 A 
ATOM      4  C   UNL     1     -29.805 -12.278  19.294  0.00  0.00    +0.073 A 
ATOM      5  N   UNL     1     -31.030 -11.866  18.871  0.00  0.00    -0.232 NA
ATOM      6  C   UNL     1     -31.187 -10.965  17.862  0.00  0.00    +0.120 A 
ATOM      7  C   UNL     1     -30.049 -10.443  17.223  0.00  0.00    +0.044 A 
ATOM      8  C   UNL     1     -28.776 -10.845  17.636  0.00  0.00    +0.013 A 
ATOM      9  C   UNL     1     -28.641 -11.768  18.679  0.00  0.00    +0.002 A 
ATOM     10  C   UNL     1     -27.378 -12.193  19.117  0.00  0.00    +0.029 A 
ATOM     11  N   UNL     1     -32.520 -10.582  17.480  0.00  0.00    -0.325 N 
ATOM     12  H   UNL     1     -33.320 -11.079  17.933  0.00  0.00    +0.148 HD
ENDROOT
BRANCH   1  14
ATOM     13  N   UNL     1     -24.937 -13.906  20.976  0.00  0.00    -0.191 NA
ATOM     14  C   UNL     1     -25.979 -13.556  20.614  0.00  0.00    +0.099 C 
ENDBRANCH   1  14
BRANCH  11  15
ATOM     15  C   UNL     1     -32.839  -9.504  16.542  0.00  0.00    +0.138 C 
BRANCH  15  16
ATOM     16  C   UNL     1     -33.460 -10.058  15.286  0.00  0.00    -0.028 A 
ATOM     17  C   UNL     1     -34.494  -9.365  14.637  0.00  0.00    +0.005 A 
ATOM     18  C   UNL     1     -35.062  -9.880  13.471  0.00  0.00    +0.003 A 
ATOM     19  C   UNL     1     -34.599 -11.083  12.935  0.00  0.00    +0.033 A 
ATOM     20  C   UNL     1     -33.555 -11.787  13.560  0.00  0.00    +0.127 A 
ATOM     21  C   UNL     1     -32.987 -11.261  14.737  0.00  0.00    +0.038 A 
BRANCH  20  22
ATOM     22  N   UNL     1     -33.077 -13.025  13.003  0.00  0.00    +0.056 N 
ATOM     23  O   UNL     1     -33.762 -13.645  11.984  0.00  0.00    -0.126 OA
ATOM     24  O   UNL     1     -32.034 -13.558  13.437  0.00  0.00    -0.126 OA
ENDBRANCH  20  22
ENDBRANCH  15  16
ENDBRANCH  11  15
TORSDOF 4
ENDMDL
