MODEL 1
REMARK VINA RESULT:    -4.926      0.000      0.000
REMARK INTER + INTRA:          -6.398
REMARK INTER:                  -6.077
REMARK INTRA:                  -0.321
REMARK UNBOUND:                -0.321
REMARK  Name = 
REMARK  4 active torsions:
REMARK  status: ('A' for Active; 'I' for Inactive)
REMARK    1  A    between atoms: C_2  and  C_3
REMARK    2  A    between atoms: N_13  and  C_14
REMARK    3  A    between atoms: C_14  and  C_15
REMARK    4  A    between atoms: C_19  and  N_21
REMARK                            x       y       z     vdW  Elec       q    Type
REMARK                         _______ _______ _______ _____ _____    ______ ____
ROOT
ATOM      1  C   UNL     1     -27.274 -13.116  20.158  0.00  0.00    +0.052 A 
ATOM      2  C   UNL     1     -28.432 -13.617  20.767  0.00  0.00    +0.021 A 
ATOM      3  C   UNL     1     -29.693 -13.188  20.342  0.00  0.00    +0.029 A 
ATOM      4  C   UNL     1     -29.804 -12.254  19.307  0.00  0.00    +0.073 A 
ATOM      5  N   UNL     1     -31.029 -11.833  18.894  0.00  0.00    -0.232 NA
ATOM      6  C   UNL     1     -31.187 -10.924  17.892  0.00  0.00    +0.120 A 
ATOM      7  C   UNL     1     -30.049 -10.403  17.251  0.00  0.00    +0.044 A 
ATOM      8  C   UNL     1     -28.777 -10.814  17.655  0.00  0.00    +0.013 A 
ATOM      9  C   UNL     1     -28.641 -11.746  18.690  0.00  0.00    +0.002 A 
ATOM     10  C   UNL     1     -27.378 -12.180  19.119  0.00  0.00    +0.029 A 
ATOM     11  N   UNL     1     -32.520 -10.531  17.519  0.00  0.00    -0.325 N 
ATOM     12  H   UNL     1     -33.320 -11.027  17.973  0.00  0.00    +0.148 HD
ENDROOT
BRANCH   1  14
ATOM     13  N   UNL     1     -24.938 -13.921  20.953  0.00  0.00    -0.191 NA
ATOM     14  C   UNL     1     -25.978 -13.562  20.599  0.00  0.00    +0.099 C 
ENDBRANCH   1  14
BRANCH  11  15
ATOM     15  C   UNL     1     -32.838  -9.444  16.591  0.00  0.00    +0.138 C 
BRANCH  15  16
ATOM     16  C   UNL     1     -33.460  -9.986  15.331  0.00  0.00    -0.028 A 
ATOM     17  C   UNL     1     -34.494  -9.286  14.689  0.00  0.00    +0.005 A 
ATOM     18  C   UNL     1     -35.062  -9.790  13.518  0.00  0.00    +0.003 A 
ATOM     19  C   UNL     1     -34.601 -10.989  12.972  0.00  0.00    +0.033 A 
ATOM     20  C   UNL     1     -33.558 -11.700  13.590  0.00  0.00    +0.127 A 
ATOM     21  C   UNL     1     -32.989 -11.185  14.771  0.00  0.00    +0.038 A 
BRANCH  20  22
ATOM     22  N   UNL     1     -33.081 -12.933  13.022  0.00  0.00    +0.056 N 
ATOM     23  O   UNL     1     -32.060 -13.631  13.625  0.00  0.00    -0.126 OA
ATOM     24  O   UNL     1     -33.582 -13.389  11.973  0.00  0.00    -0.126 OA
ENDBRANCH  20  22
ENDBRANCH  15  16
ENDBRANCH  11  15
TORSDOF 4
ENDMDL
MODEL 2
REMARK VINA RESULT:    -4.249      4.511      6.045
REMARK INTER + INTRA:          -5.563
REMARK INTER:                  -5.317
REMARK INTRA:                  -0.246
REMARK UNBOUND:                -0.321
REMARK  Name = 
REMARK  4 active torsions:
REMARK  status: ('A' for Active; 'I' for Inactive)
REMARK    1  A    between atoms: C_2  and  C_3
REMARK    2  A    between atoms: N_13  and  C_14
REMARK    3  A    between atoms: C_14  and  C_15
REMARK    4  A    between atoms: C_19  and  N_21
REMARK                            x       y       z     vdW  Elec       q    Type
REMARK                         _______ _______ _______ _____ _____    ______ ____
ROOT
ATOM      1  C   UNL     1     -29.370 -14.244  13.770  0.00  0.00    +0.052 A 
ATOM      2  C   UNL     1     -29.351 -14.832  15.042  0.00  0.00    +0.021 A 
ATOM      3  C   UNL     1     -30.236 -14.396  16.033  0.00  0.00    +0.029 A 
ATOM      4  C   UNL     1     -31.145 -13.369  15.758  0.00  0.00    +0.073 A 
ATOM      5  N   UNL     1     -32.005 -12.941  16.720  0.00  0.00    -0.232 NA
ATOM      6  C   UNL     1     -32.905 -11.943  16.500  0.00  0.00    +0.120 A 
ATOM      7  C   UNL     1     -32.959 -11.333  15.234  0.00  0.00    +0.044 A 
ATOM      8  C   UNL     1     -32.087 -11.749  14.226  0.00  0.00    +0.013 A 
ATOM      9  C   UNL     1     -31.168 -12.774  14.478  0.00  0.00    +0.002 A 
ATOM     10  C   UNL     1     -30.278 -13.215  13.488  0.00  0.00    +0.029 A 
ATOM     11  N   UNL     1     -33.777 -11.550  17.575  0.00  0.00    -0.325 N 
ATOM     12  H   UNL     1     -33.746 -12.108  18.457  0.00  0.00    +0.148 HD
ENDROOT
BRANCH   1  14
ATOM     13  N   UNL     1     -27.723 -15.062  11.938  0.00  0.00    -0.191 NA
ATOM     14  C   UNL     1     -28.456 -14.698  12.754  0.00  0.00    +0.099 C 
ENDBRANCH   1  14
BRANCH  11  15
ATOM     15  C   UNL     1     -34.665 -10.386  17.542  0.00  0.00    +0.138 C 
BRANCH  15  16
ATOM     16  C   UNL     1     -34.009  -9.198  18.195  0.00  0.00    -0.028 A 
ATOM     17  C   UNL     1     -34.710  -7.991  18.346  0.00  0.00    +0.005 A 
ATOM     18  C   UNL     1     -34.099  -6.895  18.956  0.00  0.00    +0.003 A 
ATOM     19  C   UNL     1     -32.789  -6.993  19.429  0.00  0.00    +0.033 A 
ATOM     20  C   UNL     1     -32.073  -8.195  19.301  0.00  0.00    +0.127 A 
ATOM     21  C   UNL     1     -32.696  -9.297  18.684  0.00  0.00    +0.038 A 
BRANCH  20  22
ATOM     22  N   UNL     1     -30.724  -8.295  19.793  0.00  0.00    +0.056 N 
ATOM     23  O   UNL     1     -29.985  -9.436  19.580  0.00  0.00    -0.126 OA
ATOM     24  O   UNL     1     -30.203  -7.351  20.423  0.00  0.00    -0.126 OA
ENDBRANCH  20  22
ENDBRANCH  15  16
ENDBRANCH  11  15
TORSDOF 4
ENDMDL
MODEL 3
REMARK VINA RESULT:    -4.212      1.604      2.303
REMARK INTER + INTRA:          -5.518
REMARK INTER:                  -5.360
REMARK INTRA:                  -0.158
REMARK UNBOUND:                -0.321
REMARK  Name = 
REMARK  4 active torsions:
REMARK  status: ('A' for Active; 'I' for Inactive)
REMARK    1  A    between atoms: C_2  and  C_3
REMARK    2  A    between atoms: N_13  and  C_14
REMARK    3  A    between atoms: C_14  and  C_15
REMARK    4  A    between atoms: C_19  and  N_21
REMARK                            x       y       z     vdW  Elec       q    Type
REMARK                         _______ _______ _______ _____ _____    ______ ____
ROOT
ATOM      1  C   UNL     1     -27.773 -13.205  20.081  0.00  0.00    +0.052 A 
ATOM      2  C   UNL     1     -27.107 -12.255  19.294  0.00  0.00    +0.021 A 
ATOM      3  C   UNL     1     -27.804 -11.536  18.318  0.00  0.00    +0.029 A 
ATOM      4  C   UNL     1     -29.170 -11.763  18.122  0.00  0.00    +0.073 A 
ATOM      5  N   UNL     1     -29.850 -11.067  17.172  0.00  0.00    -0.232 NA
ATOM      6  C   UNL     1     -31.179 -11.255  16.943  0.00  0.00    +0.120 A 
ATOM      7  C   UNL     1     -31.883 -12.194  17.717  0.00  0.00    +0.044 A 
ATOM      8  C   UNL     1     -31.213 -12.926  18.699  0.00  0.00    +0.013 A 
ATOM      9  C   UNL     1     -29.845 -12.718  18.912  0.00  0.00    +0.002 A 
ATOM     10  C   UNL     1     -29.142 -13.436  19.890  0.00  0.00    +0.029 A 
ATOM     11  N   UNL     1     -31.820 -10.478  15.916  0.00  0.00    -0.325 N 
ATOM     12  H   UNL     1     -31.258  -9.734  15.445  0.00  0.00    +0.148 HD
ENDROOT
BRANCH   1  14
ATOM     13  N   UNL     1     -26.470 -14.533  21.891  0.00  0.00    -0.191 NA
ATOM     14  C   UNL     1     -27.050 -13.941  21.085  0.00  0.00    +0.099 C 
ENDBRANCH   1  14
BRANCH  11  15
ATOM     15  C   UNL     1     -33.188 -10.693  15.442  0.00  0.00    +0.138 C 
BRANCH  15  16
ATOM     16  C   UNL     1     -33.196 -11.576  14.221  0.00  0.00    -0.028 A 
ATOM     17  C   UNL     1     -34.343 -11.672  13.419  0.00  0.00    +0.005 A 
ATOM     18  C   UNL     1     -34.343 -12.488  12.286  0.00  0.00    +0.003 A 
ATOM     19  C   UNL     1     -33.198 -13.207  11.938  0.00  0.00    +0.033 A 
ATOM     20  C   UNL     1     -32.033 -13.115  12.719  0.00  0.00    +0.127 A 
ATOM     21  C   UNL     1     -32.041 -12.291  13.861  0.00  0.00    +0.038 A 
BRANCH  20  22
ATOM     22  N   UNL     1     -30.853 -13.854  12.355  0.00  0.00    +0.056 N 
ATOM     23  O   UNL     1     -29.622 -13.240  12.338  0.00  0.00    -0.126 OA
ATOM     24  O   UNL     1     -30.926 -15.062  12.047  0.00  0.00    -0.126 OA
ENDBRANCH  20  22
ENDBRANCH  15  16
ENDBRANCH  11  15
TORSDOF 4
ENDMDL
MODEL 4
REMARK VINA RESULT:    -4.035      4.660      6.683
REMARK INTER + INTRA:          -5.299
REMARK INTER:                  -4.910
REMARK INTRA:                  -0.389
REMARK UNBOUND:                -0.321
REMARK  Name = 
REMARK  4 active torsions:
REMARK  status: ('A' for Active; 'I' for Inactive)
REMARK    1  A    between atoms: C_2  and  C_3
REMARK    2  A    between atoms: N_13  and  C_14
REMARK    3  A    between atoms: C_14  and  C_15
REMARK    4  A    between atoms: C_19  and  N_21
REMARK                            x       y       z     vdW  Elec       q    Type
REMARK                         _______ _______ _______ _____ _____    ______ ____
ROOT
ATOM      1  C   UNL     1     -29.088 -14.348  13.729  0.00  0.00    +0.052 A 
ATOM      2  C   UNL     1     -30.438 -14.211  13.379  0.00  0.00    +0.021 A 
ATOM      3  C   UNL     1     -31.379 -13.826  14.340  0.00  0.00    +0.029 A 
ATOM      4  C   UNL     1     -30.975 -13.576  15.655  0.00  0.00    +0.073 A 
ATOM      5  N   UNL     1     -31.888 -13.203  16.592  0.00  0.00    -0.232 NA
ATOM      6  C   UNL     1     -31.543 -12.952  17.885  0.00  0.00    +0.120 A 
ATOM      7  C   UNL     1     -30.197 -13.071  18.273  0.00  0.00    +0.044 A 
ATOM      8  C   UNL     1     -29.236 -13.454  17.334  0.00  0.00    +0.013 A 
ATOM      9  C   UNL     1     -29.616 -13.712  16.012  0.00  0.00    +0.002 A 
ATOM     10  C   UNL     1     -28.677 -14.098  15.045  0.00  0.00    +0.029 A 
ATOM     11  N   UNL     1     -32.573 -12.565  18.812  0.00  0.00    -0.325 N 
ATOM     12  H   UNL     1     -33.534 -12.406  18.435  0.00  0.00    +0.148 HD
ENDROOT
BRANCH   1  14
ATOM     13  N   UNL     1     -27.350 -15.062  11.938  0.00  0.00    -0.191 NA
ATOM     14  C   UNL     1     -28.124 -14.744  12.736  0.00  0.00    +0.099 C 
ENDBRANCH   1  14
BRANCH  11  15
ATOM     15  C   UNL     1     -32.385 -12.435  20.258  0.00  0.00    +0.138 C 
BRANCH  15  16
ATOM     16  C   UNL     1     -32.697 -11.033  20.712  0.00  0.00    -0.028 A 
ATOM     17  C   UNL     1     -33.765 -10.790  21.589  0.00  0.00    +0.005 A 
ATOM     18  C   UNL     1     -34.047  -9.489  22.010  0.00  0.00    +0.003 A 
ATOM     19  C   UNL     1     -33.262  -8.422  21.569  0.00  0.00    +0.033 A 
ATOM     20  C   UNL     1     -32.180  -8.644  20.701  0.00  0.00    +0.127 A 
ATOM     21  C   UNL     1     -31.902  -9.959  20.280  0.00  0.00    +0.038 A 
BRANCH  20  22
ATOM     22  N   UNL     1     -31.370  -7.542  20.251  0.00  0.00    +0.056 N 
ATOM     23  O   UNL     1     -31.954  -6.359  19.861  0.00  0.00    -0.126 OA
ATOM     24  O   UNL     1     -30.126  -7.642  20.204  0.00  0.00    -0.126 OA
ENDBRANCH  20  22
ENDBRANCH  15  16
ENDBRANCH  11  15
TORSDOF 4
ENDMDL
MODEL 5
REMARK VINA RESULT:    -3.901      1.321      2.060
REMARK INTER + INTRA:          -5.134
REMARK INTER:                  -4.778
REMARK INTRA:                  -0.355
REMARK UNBOUND:                -0.321
REMARK  Name = 
REMARK  4 active torsions:
REMARK  status: ('A' for Active; 'I' for Inactive)
REMARK    1  A    between atoms: C_2  and  C_3
REMARK    2  A    between atoms: N_13  and  C_14
REMARK    3  A    between atoms: C_14  and  C_15
REMARK    4  A    between atoms: C_19  and  N_21
REMARK                            x       y       z     vdW  Elec       q    Type
REMARK                         _______ _______ _______ _____ _____    ______ ____
ROOT
ATOM      1  C   UNL     1     -27.286 -13.101  20.167  0.00  0.00    +0.052 A 
ATOM      2  C   UNL     1     -26.752 -12.419  19.065  0.00  0.00    +0.021 A 
ATOM      3  C   UNL     1     -27.544 -11.524  18.339  0.00  0.00    +0.029 A 
ATOM      4  C   UNL     1     -28.875 -11.307  18.710  0.00  0.00    +0.073 A 
ATOM      5  N   UNL     1     -29.648 -10.439  18.004  0.00  0.00    -0.232 NA
ATOM      6  C   UNL     1     -30.949 -10.196  18.325  0.00  0.00    +0.120 A 
ATOM      7  C   UNL     1     -31.519 -10.856  19.428  0.00  0.00    +0.044 A 
ATOM      8  C   UNL     1     -30.751 -11.755  20.171  0.00  0.00    +0.013 A 
ATOM      9  C   UNL     1     -29.417 -11.991  19.819  0.00  0.00    +0.002 A 
ATOM     10  C   UNL     1     -28.619 -12.887  20.544  0.00  0.00    +0.029 A 
ATOM     11  N   UNL     1     -31.697  -9.265  17.523  0.00  0.00    -0.325 N 
ATOM     12  H   UNL     1     -31.185  -8.742  16.778  0.00  0.00    +0.148 HD
ENDROOT
BRANCH   1  14
ATOM     13  N   UNL     1     -25.806 -14.759  21.508  0.00  0.00    -0.191 NA
ATOM     14  C   UNL     1     -26.465 -14.021  20.911  0.00  0.00    +0.099 C 
ENDBRANCH   1  14
BRANCH  11  15
ATOM     15  C   UNL     1     -33.139  -9.039  17.638  0.00  0.00    +0.138 C 
BRANCH  15  16
ATOM     16  C   UNL     1     -33.790  -9.053  16.280  0.00  0.00    -0.028 A 
ATOM     17  C   UNL     1     -34.464  -7.919  15.801  0.00  0.00    +0.005 A 
ATOM     18  C   UNL     1     -35.061  -7.936  14.540  0.00  0.00    +0.003 A 
ATOM     19  C   UNL     1     -34.984  -9.079  13.740  0.00  0.00    +0.033 A 
ATOM     20  C   UNL     1     -34.302 -10.220  14.193  0.00  0.00    +0.127 A 
ATOM     21  C   UNL     1     -33.702 -10.196  15.468  0.00  0.00    +0.038 A 
BRANCH  20  22
ATOM     22  N   UNL     1     -34.219 -11.395  13.366  0.00  0.00    +0.056 N 
ATOM     23  O   UNL     1     -34.686 -11.373  12.072  0.00  0.00    -0.126 OA
ATOM     24  O   UNL     1     -33.726 -12.454  13.808  0.00  0.00    -0.126 OA
ENDBRANCH  20  22
ENDBRANCH  15  16
ENDBRANCH  11  15
TORSDOF 4
ENDMDL
MODEL 6
REMARK VINA RESULT:    -3.863      3.433      5.333
REMARK INTER + INTRA:          -5.087
REMARK INTER:                  -4.664
REMARK INTRA:                  -0.423
REMARK UNBOUND:                -0.321
REMARK  Name = 
REMARK  4 active torsions:
REMARK  status: ('A' for Active; 'I' for Inactive)
REMARK    1  A    between atoms: C_2  and  C_3
REMARK    2  A    between atoms: N_13  and  C_14
REMARK    3  A    between atoms: C_14  and  C_15
REMARK    4  A    between atoms: C_19  and  N_21
REMARK                            x       y       z     vdW  Elec       q    Type
REMARK                         _______ _______ _______ _____ _____    ______ ____
ROOT
ATOM      1  C   UNL     1     -31.552  -7.371  20.199  0.00  0.00    +0.052 A 
ATOM      2  C   UNL     1     -32.770  -7.559  19.532  0.00  0.00    +0.021 A 
ATOM      3  C   UNL     1     -33.030  -8.760  18.865  0.00  0.00    +0.029 A 
ATOM      4  C   UNL     1     -32.073  -9.780  18.860  0.00  0.00    +0.073 A 
ATOM      5  N   UNL     1     -32.322 -10.948  18.211  0.00  0.00    -0.232 NA
ATOM      6  C   UNL     1     -31.421 -11.969  18.176  0.00  0.00    +0.120 A 
ATOM      7  C   UNL     1     -30.190 -11.821  18.840  0.00  0.00    +0.044 A 
ATOM      8  C   UNL     1     -29.904 -10.632  19.514  0.00  0.00    +0.013 A 
ATOM      9  C   UNL     1     -30.845  -9.596  19.531  0.00  0.00    +0.002 A 
ATOM     10  C   UNL     1     -30.589  -8.389  20.198  0.00  0.00    +0.029 A 
ATOM     11  N   UNL     1     -31.764 -13.170  17.463  0.00  0.00    -0.325 N 
ATOM     12  H   UNL     1     -32.730 -13.247  17.073  0.00  0.00    +0.148 HD
ENDROOT
BRANCH   1  14
ATOM     13  N   UNL     1     -31.080  -5.137  21.434  0.00  0.00    -0.191 NA
ATOM     14  C   UNL     1     -31.290  -6.132  20.884  0.00  0.00    +0.099 C 
ENDBRANCH   1  14
BRANCH  11  15
ATOM     15  C   UNL     1     -30.837 -14.270  17.193  0.00  0.00    +0.138 C 
BRANCH  15  16
ATOM     16  C   UNL     1     -30.441 -14.288  15.740  0.00  0.00    -0.028 A 
ATOM     17  C   UNL     1     -29.208 -14.829  15.344  0.00  0.00    +0.005 A 
ATOM     18  C   UNL     1     -28.848 -14.848  13.996  0.00  0.00    +0.003 A 
ATOM     19  C   UNL     1     -29.717 -14.337  13.029  0.00  0.00    +0.033 A 
ATOM     20  C   UNL     1     -30.962 -13.803  13.401  0.00  0.00    +0.127 A 
ATOM     21  C   UNL     1     -31.318 -13.787  14.763  0.00  0.00    +0.038 A 
BRANCH  20  22
ATOM     22  N   UNL     1     -31.857 -13.281  12.402  0.00  0.00    +0.056 N 
ATOM     23  O   UNL     1     -32.907 -14.040  11.939  0.00  0.00    -0.126 OA
ATOM     24  O   UNL     1     -31.696 -12.133  11.938  0.00  0.00    -0.126 OA
ENDBRANCH  20  22
ENDBRANCH  15  16
ENDBRANCH  11  15
TORSDOF 4
ENDMDL
MODEL 7
REMARK VINA RESULT:    -3.749      2.446      2.928
REMARK INTER + INTRA:          -4.947
REMARK INTER:                  -4.764
REMARK INTRA:                  -0.183
REMARK UNBOUND:                -0.321
REMARK  Name = 
REMARK  4 active torsions:
REMARK  status: ('A' for Active; 'I' for Inactive)
REMARK    1  A    between atoms: C_2  and  C_3
REMARK    2  A    between atoms: N_13  and  C_14
REMARK    3  A    between atoms: C_14  and  C_15
REMARK    4  A    between atoms: C_19  and  N_21
REMARK                            x       y       z     vdW  Elec       q    Type
REMARK                         _______ _______ _______ _____ _____    ______ ____
ROOT
ATOM      1  C   UNL     1     -27.129 -13.218  20.366  0.00  0.00    +0.052 A 
ATOM      2  C   UNL     1     -27.935 -13.279  21.511  0.00  0.00    +0.021 A 
ATOM      3  C   UNL     1     -29.117 -12.535  21.580  0.00  0.00    +0.029 A 
ATOM      4  C   UNL     1     -29.499 -11.725  20.506  0.00  0.00    +0.073 A 
ATOM      5  N   UNL     1     -30.647 -10.999  20.571  0.00  0.00    -0.232 NA
ATOM      6  C   UNL     1     -31.059 -10.195  19.552  0.00  0.00    +0.120 A 
ATOM      7  C   UNL     1     -30.281 -10.114  18.383  0.00  0.00    +0.044 A 
ATOM      8  C   UNL     1     -29.096 -10.846  18.287  0.00  0.00    +0.013 A 
ATOM      9  C   UNL     1     -28.691 -11.662  19.350  0.00  0.00    +0.002 A 
ATOM     10  C   UNL     1     -27.507 -12.410  19.285  0.00  0.00    +0.029 A 
ATOM     11  N   UNL     1     -32.285  -9.458  19.705  0.00  0.00    -0.325 N 
ATOM     12  H   UNL     1     -32.859  -9.638  20.560  0.00  0.00    +0.148 HD
ENDROOT
BRANCH   1  14
ATOM     13  N   UNL     1     -24.938 -14.605  20.248  0.00  0.00    -0.191 NA
ATOM     14  C   UNL     1     -25.913 -13.987  20.300  0.00  0.00    +0.099 C 
ENDBRANCH   1  14
BRANCH  11  15
ATOM     15  C   UNL     1     -32.759  -8.430  18.777  0.00  0.00    +0.138 C 
BRANCH  15  16
ATOM     16  C   UNL     1     -33.549  -9.050  17.654  0.00  0.00    -0.028 A 
ATOM     17  C   UNL     1     -34.061 -10.352  17.777  0.00  0.00    +0.005 A 
ATOM     18  C   UNL     1     -34.797 -10.919  16.735  0.00  0.00    +0.003 A 
ATOM     19  C   UNL     1     -35.037 -10.193  15.567  0.00  0.00    +0.033 A 
ATOM     20  C   UNL     1     -34.546  -8.884  15.428  0.00  0.00    +0.127 A 
ATOM     21  C   UNL     1     -33.804  -8.318  16.483  0.00  0.00    +0.038 A 
BRANCH  20  22
ATOM     22  N   UNL     1     -34.798  -8.136  14.225  0.00  0.00    +0.056 N 
ATOM     23  O   UNL     1     -35.062  -8.784  13.040  0.00  0.00    -0.126 OA
ATOM     24  O   UNL     1     -34.779  -6.887  14.233  0.00  0.00    -0.126 OA
ENDBRANCH  20  22
ENDBRANCH  15  16
ENDBRANCH  11  15
TORSDOF 4
ENDMDL
MODEL 8
REMARK VINA RESULT:    -3.542      3.691      5.192
REMARK INTER + INTRA:          -4.691
REMARK INTER:                  -4.234
REMARK INTRA:                  -0.457
REMARK UNBOUND:                -0.321
REMARK  Name = 
REMARK  4 active torsions:
REMARK  status: ('A' for Active; 'I' for Inactive)
REMARK    1  A    between atoms: C_2  and  C_3
REMARK    2  A    between atoms: N_13  and  C_14
REMARK    3  A    between atoms: C_14  and  C_15
REMARK    4  A    between atoms: C_19  and  N_21
REMARK                            x       y       z     vdW  Elec       q    Type
REMARK                         _______ _______ _______ _____ _____    ______ ____
ROOT
ATOM      1  C   UNL     1     -31.263  -7.377  20.526  0.00  0.00    +0.052 A 
ATOM      2  C   UNL     1     -32.532  -7.339  19.932  0.00  0.00    +0.021 A 
ATOM      3  C   UNL     1     -32.989  -8.425  19.178  0.00  0.00    +0.029 A 
ATOM      4  C   UNL     1     -32.181  -9.554  19.014  0.00  0.00    +0.073 A 
ATOM      5  N   UNL     1     -32.622 -10.610  18.280  0.00  0.00    -0.232 NA
ATOM      6  C   UNL     1     -31.869 -11.729  18.089  0.00  0.00    +0.120 A 
ATOM      7  C   UNL     1     -30.593 -11.807  18.676  0.00  0.00    +0.044 A 
ATOM      8  C   UNL     1     -30.112 -10.738  19.433  0.00  0.00    +0.013 A 
ATOM      9  C   UNL     1     -30.902  -9.597  19.610  0.00  0.00    +0.002 A 
ATOM     10  C   UNL     1     -30.448  -8.505  20.365  0.00  0.00    +0.029 A 
ATOM     11  N   UNL     1     -32.412 -12.799  17.296  0.00  0.00    -0.325 N 
ATOM     12  H   UNL     1     -33.400 -12.713  16.970  0.00  0.00    +0.148 HD
ENDROOT
BRANCH   1  14
ATOM     13  N   UNL     1     -30.424  -5.356  21.923  0.00  0.00    -0.191 NA
ATOM     14  C   UNL     1     -30.798  -6.256  21.301  0.00  0.00    +0.099 C 
ENDBRANCH   1  14
BRANCH  11  15
ATOM     15  C   UNL     1     -31.659 -13.978  16.863  0.00  0.00    +0.138 C 
BRANCH  15  16
ATOM     16  C   UNL     1     -31.274 -13.860  15.411  0.00  0.00    -0.028 A 
ATOM     17  C   UNL     1     -32.123 -13.214  14.499  0.00  0.00    +0.005 A 
ATOM     18  C   UNL     1     -31.759 -13.103  13.156  0.00  0.00    +0.003 A 
ATOM     19  C   UNL     1     -30.543 -13.625  12.712  0.00  0.00    +0.033 A 
ATOM     20  C   UNL     1     -29.671 -14.264  13.610  0.00  0.00    +0.127 A 
ATOM     21  C   UNL     1     -30.045 -14.372  14.963  0.00  0.00    +0.038 A 
BRANCH  20  22
ATOM     22  N   UNL     1     -28.415 -14.797  13.150  0.00  0.00    +0.056 N 
ATOM     23  O   UNL     1     -27.400 -15.062  14.041  0.00  0.00    -0.126 OA
ATOM     24  O   UNL     1     -28.224 -15.026  11.938  0.00  0.00    -0.126 OA
ENDBRANCH  20  22
ENDBRANCH  15  16
ENDBRANCH  11  15
TORSDOF 4
ENDMDL
