MODEL 1
REMARK VINA RESULT:    -3.805      0.000      0.000
REMARK INTER + INTRA:          -5.257
REMARK INTER:                  -4.695
REMARK INTRA:                  -0.562
REMARK UNBOUND:                -0.562
REMARK  Name = 
REMARK  6 active torsions:
REMARK  status: ('A' for Active; 'I' for Inactive)
REMARK    1  A    between atoms: C_1  and  C_2
REMARK    2  A    between atoms: C_2  and  C_3
REMARK    3  A    between atoms: C_3  and  C_4
REMARK    4  A    between atoms: C_3  and  N_6
REMARK    5  A    between atoms: C_4  and  C_5
REMARK    6  A    between atoms: C_10  and  N_14
REMARK                            x       y       z     vdW  Elec       q    Type
REMARK                         _______ _______ _______ _____ _____    ______ ____
ROOT
ATOM      1  N   UNL     1     -31.231 -13.107  20.203  0.00  0.00    -0.311 N 
ATOM      2  C   UNL     1     -29.799 -13.154  20.229  0.00  0.00    +0.217 A 
ATOM      3  N   UNL     1     -29.065 -12.394  19.375  0.00  0.00    -0.221 NA
ATOM      4  C   UNL     1     -27.709 -12.432  19.391  0.00  0.00    +0.150 A 
ATOM      5  C   UNL     1     -27.034 -13.253  20.304  0.00  0.00    +0.184 A 
ATOM      6  C   UNL     1     -27.813 -14.057  21.165  0.00  0.00    +0.152 A 
ATOM      7  N   UNL     1     -27.219 -15.000  22.062  0.00  0.00    -0.341 N 
ATOM      8  N   UNL     1     -29.169 -13.977  21.107  0.00  0.00    -0.198 NA
ATOM      9  H   UNL     1     -31.753 -13.694  20.894  0.00  0.00    +0.149 HD
ATOM     10  H   UNL     1     -27.821 -15.520  22.738  0.00  0.00    +0.144 HD
ATOM     11  H   UNL     1     -26.218 -15.282  21.990  0.00  0.00    +0.144 HD
ENDROOT
BRANCH   5  12
ATOM     12  N   UNL     1     -25.598 -13.232  20.354  0.00  0.00    +0.061 N 
ATOM     13  O   UNL     1     -24.938 -13.913  21.351  0.00  0.00    -0.126 OA
ATOM     14  O   UNL     1     -24.940 -12.787  19.391  0.00  0.00    -0.126 OA
ENDBRANCH   5  12
BRANCH   1  15
ATOM     15  C   UNL     1     -31.974 -12.244  19.276  0.00  0.00    +0.073 C 
BRANCH  15  17
ATOM     16  C   UNL     1     -32.851 -12.224  16.871  0.00  0.00    +0.006 C 
ATOM     17  C   UNL     1     -32.495 -13.088  18.080  0.00  0.00    +0.019 C 
ENDBRANCH  15  17
BRANCH  15  18
ATOM     18  C   UNL     1     -33.121 -11.539  20.038  0.00  0.00    +0.019 C 
ATOM     19  C   UNL     1     -32.640 -10.764  21.264  0.00  0.00    +0.006 C 
ENDBRANCH  15  18
ENDBRANCH   1  15
TORSDOF 4
ENDMDL
MODEL 2
REMARK VINA RESULT:    -3.661      3.423      4.734
REMARK INTER + INTRA:          -5.079
REMARK INTER:                  -4.467
REMARK INTRA:                  -0.612
REMARK UNBOUND:                -0.562
REMARK  Name = 
REMARK  6 active torsions:
REMARK  status: ('A' for Active; 'I' for Inactive)
REMARK    1  A    between atoms: C_1  and  C_2
REMARK    2  A    between atoms: C_2  and  C_3
REMARK    3  A    between atoms: C_3  and  C_4
REMARK    4  A    between atoms: C_3  and  N_6
REMARK    5  A    between atoms: C_4  and  C_5
REMARK    6  A    between atoms: C_10  and  N_14
REMARK                            x       y       z     vdW  Elec       q    Type
REMARK                         _______ _______ _______ _____ _____    ______ ____
ROOT
ATOM      1  N   UNL     1     -31.681 -12.975  14.884  0.00  0.00    -0.311 N 
ATOM      2  C   UNL     1     -30.901 -12.526  16.001  0.00  0.00    +0.217 A 
ATOM      3  N   UNL     1     -30.630 -11.206  16.172  0.00  0.00    -0.221 NA
ATOM      4  C   UNL     1     -29.894 -10.772  17.225  0.00  0.00    +0.150 A 
ATOM      5  C   UNL     1     -29.404 -11.683  18.170  0.00  0.00    +0.184 A 
ATOM      6  C   UNL     1     -29.672 -13.053  17.962  0.00  0.00    +0.152 A 
ATOM      7  N   UNL     1     -29.133 -14.068  18.815  0.00  0.00    -0.341 N 
ATOM      8  N   UNL     1     -30.418 -13.432  16.889  0.00  0.00    -0.198 NA
ATOM      9  H   UNL     1     -31.881 -13.998  14.807  0.00  0.00    +0.149 HD
ATOM     10  H   UNL     1     -29.415 -15.063  18.677  0.00  0.00    +0.144 HD
ATOM     11  H   UNL     1     -28.371 -13.872  19.499  0.00  0.00    +0.144 HD
ENDROOT
BRANCH   5  12
ATOM     12  N   UNL     1     -28.683 -11.202  19.316  0.00  0.00    +0.061 N 
ATOM     13  O   UNL     1     -29.341 -10.487  20.290  0.00  0.00    -0.126 OA
ATOM     14  O   UNL     1     -27.523 -11.603  19.545  0.00  0.00    -0.126 OA
ENDBRANCH   5  12
BRANCH   1  15
ATOM     15  C   UNL     1     -32.229 -12.049  13.884  0.00  0.00    +0.073 C 
BRANCH  15  17
ATOM     16  C   UNL     1     -33.377 -13.253  11.939  0.00  0.00    +0.006 C 
ATOM     17  C   UNL     1     -32.070 -12.660  12.465  0.00  0.00    +0.019 C 
ENDBRANCH  15  17
BRANCH  15  18
ATOM     18  C   UNL     1     -33.705 -11.740  14.226  0.00  0.00    +0.019 C 
ATOM     19  C   UNL     1     -33.940 -10.279  14.608  0.00  0.00    +0.006 C 
ENDBRANCH  15  18
ENDBRANCH   1  15
TORSDOF 4
ENDMDL
MODEL 3
REMARK VINA RESULT:    -3.644      4.106      5.470
REMARK INTER + INTRA:          -5.058
REMARK INTER:                  -4.586
REMARK INTRA:                  -0.472
REMARK UNBOUND:                -0.562
REMARK  Name = 
REMARK  6 active torsions:
REMARK  status: ('A' for Active; 'I' for Inactive)
REMARK    1  A    between atoms: C_1  and  C_2
REMARK    2  A    between atoms: C_2  and  C_3
REMARK    3  A    between atoms: C_3  and  C_4
REMARK    4  A    between atoms: C_3  and  N_6
REMARK    5  A    between atoms: C_4  and  C_5
REMARK    6  A    between atoms: C_10  and  N_14
REMARK                            x       y       z     vdW  Elec       q    Type
REMARK                         _______ _______ _______ _____ _____    ______ ____
ROOT
ATOM      1  N   UNL     1     -29.084 -14.090  14.915  0.00  0.00    -0.311 N 
ATOM      2  C   UNL     1     -29.362 -13.863  16.303  0.00  0.00    +0.217 A 
ATOM      3  N   UNL     1     -30.605 -14.080  16.806  0.00  0.00    -0.221 NA
ATOM      4  C   UNL     1     -30.878 -13.868  18.117  0.00  0.00    +0.150 A 
ATOM      5  C   UNL     1     -29.872 -13.429  18.988  0.00  0.00    +0.184 A 
ATOM      6  C   UNL     1     -28.592 -13.183  18.443  0.00  0.00    +0.152 A 
ATOM      7  N   UNL     1     -27.527 -12.640  19.228  0.00  0.00    -0.341 N 
ATOM      8  N   UNL     1     -28.375 -13.414  17.121  0.00  0.00    -0.198 NA
ATOM      9  H   UNL     1     -28.107 -13.930  14.579  0.00  0.00    +0.149 HD
ATOM     10  H   UNL     1     -26.574 -12.544  18.812  0.00  0.00    +0.144 HD
ATOM     11  H   UNL     1     -27.688 -12.220  20.169  0.00  0.00    +0.144 HD
ENDROOT
BRANCH   5  12
ATOM     12  N   UNL     1     -30.158 -13.273  20.387  0.00  0.00    +0.061 N 
ATOM     13  O   UNL     1     -29.199 -13.588  21.323  0.00  0.00    -0.126 OA
ATOM     14  O   UNL     1     -31.180 -12.658  20.757  0.00  0.00    -0.126 OA
ENDBRANCH   5  12
BRANCH   1  15
ATOM     15  C   UNL     1     -30.107 -14.569  13.976  0.00  0.00    +0.073 C 
BRANCH  15  17
ATOM     16  C   UNL     1     -31.772 -13.554  12.318  0.00  0.00    +0.006 C 
ATOM     17  C   UNL     1     -31.136 -13.439  13.703  0.00  0.00    +0.019 C 
ENDBRANCH  15  17
BRANCH  15  18
ATOM     18  C   UNL     1     -29.422 -15.062  12.679  0.00  0.00    +0.019 C 
ATOM     19  C   UNL     1     -27.953 -14.652  12.583  0.00  0.00    +0.006 C 
ENDBRANCH  15  18
ENDBRANCH   1  15
TORSDOF 4
ENDMDL
MODEL 4
REMARK VINA RESULT:    -3.591      3.781      5.154
REMARK INTER + INTRA:          -4.993
REMARK INTER:                  -4.347
REMARK INTRA:                  -0.646
REMARK UNBOUND:                -0.562
REMARK  Name = 
REMARK  6 active torsions:
REMARK  status: ('A' for Active; 'I' for Inactive)
REMARK    1  A    between atoms: C_1  and  C_2
REMARK    2  A    between atoms: C_2  and  C_3
REMARK    3  A    between atoms: C_3  and  C_4
REMARK    4  A    between atoms: C_3  and  N_6
REMARK    5  A    between atoms: C_4  and  C_5
REMARK    6  A    between atoms: C_10  and  N_14
REMARK                            x       y       z     vdW  Elec       q    Type
REMARK                         _______ _______ _______ _____ _____    ______ ____
ROOT
ATOM      1  N   UNL     1     -31.043 -14.076  15.383  0.00  0.00    -0.311 N 
ATOM      2  C   UNL     1     -30.678 -13.361  16.570  0.00  0.00    +0.217 A 
ATOM      3  N   UNL     1     -30.098 -12.134  16.490  0.00  0.00    -0.221 NA
ATOM      4  C   UNL     1     -29.749 -11.449  17.607  0.00  0.00    +0.150 A 
ATOM      5  C   UNL     1     -29.992 -11.992  18.875  0.00  0.00    +0.184 A 
ATOM      6  C   UNL     1     -30.570 -13.279  18.940  0.00  0.00    +0.152 A 
ATOM      7  N   UNL     1     -30.765 -13.959  20.183  0.00  0.00    -0.341 N 
ATOM      8  N   UNL     1     -30.901 -13.920  17.787  0.00  0.00    -0.198 NA
ATOM      9  H   UNL     1     -31.505 -15.007  15.495  0.00  0.00    +0.149 HD
ATOM     10  H   UNL     1     -31.265 -14.876  20.198  0.00  0.00    +0.144 HD
ATOM     11  H   UNL     1     -30.321 -13.636  21.069  0.00  0.00    +0.144 HD
ENDROOT
BRANCH   5  12
ATOM     12  N   UNL     1     -29.678 -11.226  20.050  0.00  0.00    +0.061 N 
ATOM     13  O   UNL     1     -29.159 -11.854  21.159  0.00  0.00    -0.126 OA
ATOM     14  O   UNL     1     -29.669  -9.979  20.005  0.00  0.00    -0.126 OA
ENDBRANCH   5  12
BRANCH   1  15
ATOM     15  C   UNL     1     -30.824 -13.532  14.036  0.00  0.00    +0.073 C 
BRANCH  15  17
ATOM     16  C   UNL     1     -28.648 -14.772  13.506  0.00  0.00    +0.006 C 
ATOM     17  C   UNL     1     -30.125 -14.598  13.149  0.00  0.00    +0.019 C 
ENDBRANCH  15  17
BRANCH  15  18
ATOM     18  C   UNL     1     -32.176 -13.072  13.443  0.00  0.00    +0.019 C 
ATOM     19  C   UNL     1     -32.339 -13.436  11.968  0.00  0.00    +0.006 C 
ENDBRANCH  15  18
ENDBRANCH   1  15
TORSDOF 4
ENDMDL
MODEL 5
REMARK VINA RESULT:    -3.379      2.160      2.744
REMARK INTER + INTRA:          -4.732
REMARK INTER:                  -4.171
REMARK INTRA:                  -0.561
REMARK UNBOUND:                -0.562
REMARK  Name = 
REMARK  6 active torsions:
REMARK  status: ('A' for Active; 'I' for Inactive)
REMARK    1  A    between atoms: C_1  and  C_2
REMARK    2  A    between atoms: C_2  and  C_3
REMARK    3  A    between atoms: C_3  and  C_4
REMARK    4  A    between atoms: C_3  and  N_6
REMARK    5  A    between atoms: C_4  and  C_5
REMARK    6  A    between atoms: C_10  and  N_14
REMARK                            x       y       z     vdW  Elec       q    Type
REMARK                         _______ _______ _______ _____ _____    ______ ____
ROOT
ATOM      1  N   UNL     1     -32.678 -11.618  18.438  0.00  0.00    -0.311 N 
ATOM      2  C   UNL     1     -31.249 -11.695  18.517  0.00  0.00    +0.217 A 
ATOM      3  N   UNL     1     -30.475 -10.656  18.109  0.00  0.00    -0.221 NA
ATOM      4  C   UNL     1     -29.121 -10.719  18.180  0.00  0.00    +0.150 A 
ATOM      5  C   UNL     1     -28.492 -11.861  18.692  0.00  0.00    +0.184 A 
ATOM      6  C   UNL     1     -29.311 -12.942  19.087  0.00  0.00    +0.152 A 
ATOM      7  N   UNL     1     -28.761 -14.186  19.529  0.00  0.00    -0.341 N 
ATOM      8  N   UNL     1     -30.662 -12.823  18.995  0.00  0.00    -0.198 NA
ATOM      9  H   UNL     1     -33.232 -12.434  18.784  0.00  0.00    +0.149 HD
ATOM     10  H   UNL     1     -29.395 -14.935  19.885  0.00  0.00    +0.144 HD
ATOM     11  H   UNL     1     -27.755 -14.427  19.397  0.00  0.00    +0.144 HD
ENDROOT
BRANCH   5  12
ATOM     12  N   UNL     1     -27.061 -11.887  18.824  0.00  0.00    +0.061 N 
ATOM     13  O   UNL     1     -26.448 -12.960  19.430  0.00  0.00    -0.126 OA
ATOM     14  O   UNL     1     -26.356 -11.060  18.210  0.00  0.00    -0.126 OA
ENDBRANCH   5  12
BRANCH   1  15
ATOM     15  C   UNL     1     -33.375 -10.430  17.927  0.00  0.00    +0.073 C 
BRANCH  15  17
ATOM     16  C   UNL     1     -34.107 -11.783  15.880  0.00  0.00    +0.006 C 
ATOM     17  C   UNL     1     -34.558 -10.869  17.020  0.00  0.00    +0.019 C 
ENDBRANCH  15  17
BRANCH  15  18
ATOM     18  C   UNL     1     -33.842  -9.558  19.116  0.00  0.00    +0.019 C 
ATOM     19  C   UNL     1     -34.227  -8.138  18.705  0.00  0.00    +0.006 C 
ENDBRANCH  15  18
ENDBRANCH   1  15
TORSDOF 4
ENDMDL
MODEL 6
REMARK VINA RESULT:    -3.378      5.333      6.823
REMARK INTER + INTRA:          -4.731
REMARK INTER:                  -4.130
REMARK INTRA:                  -0.601
REMARK UNBOUND:                -0.562
REMARK  Name = 
REMARK  6 active torsions:
REMARK  status: ('A' for Active; 'I' for Inactive)
REMARK    1  A    between atoms: C_1  and  C_2
REMARK    2  A    between atoms: C_2  and  C_3
REMARK    3  A    between atoms: C_3  and  C_4
REMARK    4  A    between atoms: C_3  and  N_6
REMARK    5  A    between atoms: C_4  and  C_5
REMARK    6  A    between atoms: C_10  and  N_14
REMARK                            x       y       z     vdW  Elec       q    Type
REMARK                         _______ _______ _______ _____ _____    ______ ____
ROOT
ATOM      1  N   UNL     1     -32.587 -12.232  14.533  0.00  0.00    -0.311 N 
ATOM      2  C   UNL     1     -32.200 -11.352  15.597  0.00  0.00    +0.217 A 
ATOM      3  N   UNL     1     -30.928 -10.882  15.680  0.00  0.00    -0.221 NA
ATOM      4  C   UNL     1     -30.552 -10.048  16.682  0.00  0.00    +0.150 A 
ATOM      5  C   UNL     1     -31.479  -9.644  17.652  0.00  0.00    +0.184 A 
ATOM      6  C   UNL     1     -32.789 -10.164  17.566  0.00  0.00    +0.152 A 
ATOM      7  N   UNL     1     -33.778  -9.891  18.563  0.00  0.00    -0.341 N 
ATOM      8  N   UNL     1     -33.111 -10.995  16.538  0.00  0.00    -0.198 NA
ATOM      9  H   UNL     1     -33.582 -12.551  14.500  0.00  0.00    +0.149 HD
ATOM     10  H   UNL     1     -34.757 -10.229  18.426  0.00  0.00    +0.144 HD
ATOM     11  H   UNL     1     -33.537  -9.469  19.485  0.00  0.00    +0.144 HD
ENDROOT
BRANCH   5  12
ATOM     12  N   UNL     1     -31.084  -8.709  18.668  0.00  0.00    +0.061 N 
ATOM     13  O   UNL     1     -31.973  -7.752  19.102  0.00  0.00    -0.126 OA
ATOM     14  O   UNL     1     -30.028  -8.885  19.311  0.00  0.00    -0.126 OA
ENDBRANCH   5  12
BRANCH   1  15
ATOM     15  C   UNL     1     -31.650 -12.662  13.487  0.00  0.00    +0.073 C 
BRANCH  15  17
ATOM     16  C   UNL     1     -29.809 -14.360  12.959  0.00  0.00    +0.006 C 
ATOM     17  C   UNL     1     -30.859 -13.907  13.973  0.00  0.00    +0.019 C 
ENDBRANCH  15  17
BRANCH  15  18
ATOM     18  C   UNL     1     -32.432 -12.938  12.181  0.00  0.00    +0.019 C 
ATOM     19  C   UNL     1     -33.940 -12.746  12.332  0.00  0.00    +0.006 C 
ENDBRANCH  15  18
ENDBRANCH   1  15
TORSDOF 4
ENDMDL
MODEL 7
REMARK VINA RESULT:    -3.367      5.534      7.188
REMARK INTER + INTRA:          -4.716
REMARK INTER:                  -4.048
REMARK INTRA:                  -0.668
REMARK UNBOUND:                -0.562
REMARK  Name = 
REMARK  6 active torsions:
REMARK  status: ('A' for Active; 'I' for Inactive)
REMARK    1  A    between atoms: C_1  and  C_2
REMARK    2  A    between atoms: C_2  and  C_3
REMARK    3  A    between atoms: C_3  and  C_4
REMARK    4  A    between atoms: C_3  and  N_6
REMARK    5  A    between atoms: C_4  and  C_5
REMARK    6  A    between atoms: C_10  and  N_14
REMARK                            x       y       z     vdW  Elec       q    Type
REMARK                         _______ _______ _______ _____ _____    ______ ____
ROOT
ATOM      1  N   UNL     1     -31.646 -11.999  13.931  0.00  0.00    -0.311 N 
ATOM      2  C   UNL     1     -32.062 -11.675  15.264  0.00  0.00    +0.217 A 
ATOM      3  N   UNL     1     -32.538 -12.639  16.095  0.00  0.00    -0.221 NA
ATOM      4  C   UNL     1     -32.934 -12.343  17.358  0.00  0.00    +0.150 A 
ATOM      5  C   UNL     1     -32.848 -11.029  17.838  0.00  0.00    +0.184 A 
ATOM      6  C   UNL     1     -32.377 -10.036  16.952  0.00  0.00    +0.152 A 
ATOM      7  N   UNL     1     -32.346  -8.652  17.314  0.00  0.00    -0.341 N 
ATOM      8  N   UNL     1     -31.992 -10.390  15.696  0.00  0.00    -0.198 NA
ATOM      9  H   UNL     1     -31.267 -11.227  13.336  0.00  0.00    +0.149 HD
ATOM     10  H   UNL     1     -31.920  -7.956  16.663  0.00  0.00    +0.144 HD
ATOM     11  H   UNL     1     -32.843  -8.286  18.154  0.00  0.00    +0.144 HD
ENDROOT
BRANCH   5  12
ATOM     12  N   UNL     1     -33.209 -10.743  19.199  0.00  0.00    +0.061 N 
ATOM     13  O   UNL     1     -33.920  -9.603  19.494  0.00  0.00    -0.126 OA
ATOM     14  O   UNL     1     -33.073 -11.614  20.083  0.00  0.00    -0.126 OA
ENDBRANCH   5  12
BRANCH   1  15
ATOM     15  C   UNL     1     -31.701 -13.367  13.399  0.00  0.00    +0.073 C 
BRANCH  15  17
ATOM     16  C   UNL     1     -33.722 -12.789  11.938  0.00  0.00    +0.006 C 
ATOM     17  C   UNL     1     -32.298 -13.346  11.965  0.00  0.00    +0.019 C 
ENDBRANCH  15  17
BRANCH  15  18
ATOM     18  C   UNL     1     -30.285 -13.987  13.434  0.00  0.00    +0.019 C 
ATOM     19  C   UNL     1     -30.075 -14.939  14.611  0.00  0.00    +0.006 C 
ENDBRANCH  15  18
ENDBRANCH   1  15
TORSDOF 4
ENDMDL
MODEL 8
REMARK VINA RESULT:    -3.311      2.556      3.830
REMARK INTER + INTRA:          -4.648
REMARK INTER:                  -4.056
REMARK INTRA:                  -0.592
REMARK UNBOUND:                -0.562
REMARK  Name = 
REMARK  6 active torsions:
REMARK  status: ('A' for Active; 'I' for Inactive)
REMARK    1  A    between atoms: C_1  and  C_2
REMARK    2  A    between atoms: C_2  and  C_3
REMARK    3  A    between atoms: C_3  and  C_4
REMARK    4  A    between atoms: C_3  and  N_6
REMARK    5  A    between atoms: C_4  and  C_5
REMARK    6  A    between atoms: C_10  and  N_14
REMARK                            x       y       z     vdW  Elec       q    Type
REMARK                         _______ _______ _______ _____ _____    ______ ____
ROOT
ATOM      1  N   UNL     1     -30.472  -9.585  17.374  0.00  0.00    -0.311 N 
ATOM      2  C   UNL     1     -29.571 -10.509  17.997  0.00  0.00    +0.217 A 
ATOM      3  N   UNL     1     -30.033 -11.457  18.855  0.00  0.00    -0.221 NA
ATOM      4  C   UNL     1     -29.189 -12.336  19.450  0.00  0.00    +0.150 A 
ATOM      5  C   UNL     1     -27.815 -12.292  19.180  0.00  0.00    +0.184 A 
ATOM      6  C   UNL     1     -27.349 -11.284  18.308  0.00  0.00    +0.152 A 
ATOM      7  N   UNL     1     -25.955 -11.094  18.048  0.00  0.00    -0.341 N 
ATOM      8  N   UNL     1     -28.241 -10.430  17.738  0.00  0.00    -0.198 NA
ATOM      9  H   UNL     1     -30.072  -8.888  16.705  0.00  0.00    +0.149 HD
ATOM     10  H   UNL     1     -25.652 -10.390  17.339  0.00  0.00    +0.144 HD
ATOM     11  H   UNL     1     -25.215 -11.546  18.627  0.00  0.00    +0.144 HD
ENDROOT
BRANCH   5  12
ATOM     12  N   UNL     1     -26.942 -13.271  19.766  0.00  0.00    +0.061 N 
ATOM     13  O   UNL     1     -25.582 -13.062  19.772  0.00  0.00    -0.126 OA
ATOM     14  O   UNL     1     -27.411 -14.202  20.455  0.00  0.00    -0.126 OA
ENDBRANCH   5  12
BRANCH   1  15
ATOM     15  C   UNL     1     -31.921  -9.613  17.615  0.00  0.00    +0.073 C 
BRANCH  15  17
ATOM     16  C   UNL     1     -33.738  -8.039  18.494  0.00  0.00    +0.006 C 
ATOM     17  C   UNL     1     -32.298  -8.525  18.657  0.00  0.00    +0.019 C 
ENDBRANCH  15  17
BRANCH  15  18
ATOM     18  C   UNL     1     -32.667  -9.422  16.274  0.00  0.00    +0.019 C 
ATOM     19  C   UNL     1     -32.548 -10.628  15.343  0.00  0.00    +0.006 C 
ENDBRANCH  15  18
ENDBRANCH   1  15
TORSDOF 4
ENDMDL
