MODEL 1
REMARK VINA RESULT:    -4.219      0.000      0.000
REMARK INTER + INTRA:          -7.237
REMARK INTER:                  -5.946
REMARK INTRA:                  -1.291
REMARK UNBOUND:                -1.291
REMARK  Name = 
REMARK  7 active torsions:
REMARK  status: ('A' for Active; 'I' for Inactive)
REMARK    1  A    between atoms: C_2  and  C_3
REMARK    2  A    between atoms: C_6  and  C_9
REMARK    3  A    between atoms: C_12  and  O_15
REMARK    4  A    between atoms: O_15  and  C_16
REMARK    5  A    between atoms: C_16  and  C_17
REMARK    6  A    between atoms: N_19  and  C_20
REMARK    7  A    between atoms: C_23  and  C_26
REMARK                            x       y       z     vdW  Elec       q    Type
REMARK                         _______ _______ _______ _____ _____    ______ ____
ROOT
ATOM      1  C   UNL     1     -34.472  -8.235  20.625  0.00  0.00    +0.324 C 
ENDROOT
BRANCH   1   2
ATOM      2  C   UNL     1     -33.519  -9.334  20.974  0.00  0.00    +0.255 C 
ATOM      3  O   UNL     1     -33.963 -10.392  21.496  0.00  0.00    -0.272 OA
ATOM      4  N   UNL     1     -32.106  -9.144  20.800  0.00  0.00    -0.283 N 
ATOM      5  H   UNL     1     -31.757  -8.167  20.673  0.00  0.00    +0.155 HD
BRANCH   4   6
ATOM      6  C   UNL     1     -31.133 -10.198  20.901  0.00  0.00    +0.034 A 
ATOM      7  C   UNL     1     -31.060 -11.225  19.944  0.00  0.00    +0.024 A 
ATOM      8  C   UNL     1     -30.090 -12.225  20.052  0.00  0.00    +0.015 A 
ATOM      9  C   UNL     1     -29.160 -12.210  21.106  0.00  0.00    +0.037 A 
ATOM     10  C   UNL     1     -29.227 -11.174  22.055  0.00  0.00    +0.015 A 
ATOM     11  C   UNL     1     -30.198 -10.174  21.945  0.00  0.00    +0.024 A 
BRANCH   9  12
ATOM     12  C   UNL     1     -28.140 -13.283  21.209  0.00  0.00    +0.242 C 
ATOM     13  N   UNL     1     -28.194 -14.449  20.384  0.00  0.00    -0.325 N 
ATOM     14  O   UNL     1     -27.208 -13.177  22.052  0.00  0.00    -0.270 OA
ATOM     15  H   UNL     1     -27.431 -15.159  20.437  0.00  0.00    +0.145 HD
ATOM     16  H   UNL     1     -29.022 -14.663  19.787  0.00  0.00    +0.145 HD
ENDBRANCH   9  12
ENDBRANCH   4   6
ENDBRANCH   1   2
BRANCH   1  17
ATOM     17  O   UNL     1     -34.589  -8.135  19.208  0.00  0.00    -0.483 OA
BRANCH  17  21
ATOM     18  C   UNL     1     -32.798 -10.791  16.452  0.00  0.00    -0.018 A 
ATOM     19  C   UNL     1     -33.969 -11.173  17.132  0.00  0.00    +0.012 A 
ATOM     20  C   UNL     1     -34.574 -10.307  18.047  0.00  0.00    +0.046 A 
ATOM     21  C   UNL     1     -34.019  -9.039  18.300  0.00  0.00    +0.121 A 
ATOM     22  C   UNL     1     -32.855  -8.658  17.625  0.00  0.00    +0.046 A 
ATOM     23  C   UNL     1     -32.248  -9.523  16.710  0.00  0.00    +0.012 A 
BRANCH  18  27
ATOM     24  C   UNL     1     -30.932 -13.455  13.637  0.00  0.00    +0.052 A 
ATOM     25  C   UNL     1     -30.346 -13.231  14.887  0.00  0.00    +0.019 A 
ATOM     26  C   UNL     1     -30.951 -12.366  15.803  0.00  0.00    +0.010 A 
ATOM     27  C   UNL     1     -32.155 -11.711  15.480  0.00  0.00    -0.018 A 
ATOM     28  C   UNL     1     -32.737 -11.942  14.220  0.00  0.00    +0.010 A 
ATOM     29  C   UNL     1     -32.129 -12.808  13.305  0.00  0.00    +0.019 A 
BRANCH  24  31
ATOM     30  N   UNL     1     -29.807 -15.062  11.938  0.00  0.00    -0.191 NA
ATOM     31  C   UNL     1     -30.309 -14.346  12.695  0.00  0.00    +0.099 C 
ENDBRANCH  24  31
ENDBRANCH  18  27
ENDBRANCH  17  21
ENDBRANCH   1  17
TORSDOF 7
ENDMDL
MODEL 2
REMARK VINA RESULT:    -3.977      2.721      6.350
REMARK INTER + INTRA:          -6.895
REMARK INTER:                  -5.795
REMARK INTRA:                  -1.100
REMARK UNBOUND:                -1.291
REMARK  Name = 
REMARK  7 active torsions:
REMARK  status: ('A' for Active; 'I' for Inactive)
REMARK    1  A    between atoms: C_2  and  C_3
REMARK    2  A    between atoms: C_6  and  C_9
REMARK    3  A    between atoms: C_12  and  O_15
REMARK    4  A    between atoms: O_15  and  C_16
REMARK    5  A    between atoms: C_16  and  C_17
REMARK    6  A    between atoms: N_19  and  C_20
REMARK    7  A    between atoms: C_23  and  C_26
REMARK                            x       y       z     vdW  Elec       q    Type
REMARK                         _______ _______ _______ _____ _____    ______ ____
ROOT
ATOM      1  C   UNL     1     -34.856  -8.230  16.957  0.00  0.00    +0.324 C 
ENDROOT
BRANCH   1   2
ATOM      2  C   UNL     1     -34.100  -9.047  15.958  0.00  0.00    +0.255 C 
ATOM      3  O   UNL     1     -33.425  -8.461  15.068  0.00  0.00    -0.272 OA
ATOM      4  N   UNL     1     -34.217 -10.478  15.961  0.00  0.00    -0.283 N 
ATOM      5  H   UNL     1     -35.014 -10.901  16.490  0.00  0.00    +0.155 HD
BRANCH   4   6
ATOM      6  C   UNL     1     -33.377 -11.357  15.193  0.00  0.00    +0.034 A 
ATOM      7  C   UNL     1     -33.780 -11.849  13.939  0.00  0.00    +0.024 A 
ATOM      8  C   UNL     1     -32.935 -12.683  13.202  0.00  0.00    +0.015 A 
ATOM      9  C   UNL     1     -31.662 -13.027  13.692  0.00  0.00    +0.037 A 
ATOM     10  C   UNL     1     -31.258 -12.523  14.940  0.00  0.00    +0.015 A 
ATOM     11  C   UNL     1     -32.104 -11.688  15.676  0.00  0.00    +0.024 A 
BRANCH   9  12
ATOM     12  C   UNL     1     -30.780 -13.918  12.899  0.00  0.00    +0.242 C 
ATOM     13  N   UNL     1     -29.379 -14.013  13.165  0.00  0.00    -0.325 N 
ATOM     14  O   UNL     1     -31.268 -14.600  11.957  0.00  0.00    -0.270 OA
ATOM     15  H   UNL     1     -28.793 -14.693  12.630  0.00  0.00    +0.145 HD
ATOM     16  H   UNL     1     -28.896 -13.361  13.820  0.00  0.00    +0.145 HD
ENDBRANCH   9  12
ENDBRANCH   4   6
ENDBRANCH   1   2
BRANCH   1  17
ATOM     17  O   UNL     1     -34.577  -8.704  18.272  0.00  0.00    -0.483 OA
BRANCH  17  21
ATOM     18  C   UNL     1     -31.054 -10.789  19.317  0.00  0.00    -0.018 A 
ATOM     19  C   UNL     1     -32.307 -11.402  19.493  0.00  0.00    +0.012 A 
ATOM     20  C   UNL     1     -33.483 -10.727  19.153  0.00  0.00    +0.046 A 
ATOM     21  C   UNL     1     -33.427  -9.422  18.629  0.00  0.00    +0.121 A 
ATOM     22  C   UNL     1     -32.181  -8.811  18.454  0.00  0.00    +0.046 A 
ATOM     23  C   UNL     1     -31.004  -9.485  18.794  0.00  0.00    +0.012 A 
BRANCH  18  27
ATOM     24  C   UNL     1     -27.435 -12.863  20.368  0.00  0.00    +0.052 A 
ATOM     25  C   UNL     1     -28.538 -12.896  21.228  0.00  0.00    +0.019 A 
ATOM     26  C   UNL     1     -29.714 -12.222  20.888  0.00  0.00    +0.010 A 
ATOM     27  C   UNL     1     -29.805 -11.506  19.680  0.00  0.00    -0.018 A 
ATOM     28  C   UNL     1     -28.690 -11.479  18.821  0.00  0.00    +0.010 A 
ATOM     29  C   UNL     1     -27.513 -12.153  19.164  0.00  0.00    +0.019 A 
BRANCH  24  31
ATOM     30  N   UNL     1     -25.251 -14.115  21.002  0.00  0.00    -0.191 NA
ATOM     31  C   UNL     1     -26.225 -13.557  20.719  0.00  0.00    +0.099 C 
ENDBRANCH  24  31
ENDBRANCH  18  27
ENDBRANCH  17  21
ENDBRANCH   1  17
TORSDOF 7
ENDMDL
MODEL 3
REMARK VINA RESULT:    -3.885      2.797      6.413
REMARK INTER + INTRA:          -6.765
REMARK INTER:                  -5.768
REMARK INTRA:                  -0.997
REMARK UNBOUND:                -1.291
REMARK  Name = 
REMARK  7 active torsions:
REMARK  status: ('A' for Active; 'I' for Inactive)
REMARK    1  A    between atoms: C_2  and  C_3
REMARK    2  A    between atoms: C_6  and  C_9
REMARK    3  A    between atoms: C_12  and  O_15
REMARK    4  A    between atoms: O_15  and  C_16
REMARK    5  A    between atoms: C_16  and  C_17
REMARK    6  A    between atoms: N_19  and  C_20
REMARK    7  A    between atoms: C_23  and  C_26
REMARK                            x       y       z     vdW  Elec       q    Type
REMARK                         _______ _______ _______ _____ _____    ______ ____
ROOT
ATOM      1  C   UNL     1     -34.786  -7.253  20.070  0.00  0.00    +0.324 C 
ENDROOT
BRANCH   1   2
ATOM      2  C   UNL     1     -34.660  -7.832  18.696  0.00  0.00    +0.255 C 
ATOM      3  O   UNL     1     -34.516  -7.057  17.712  0.00  0.00    -0.272 OA
ATOM      4  N   UNL     1     -34.795  -9.248  18.496  0.00  0.00    -0.283 N 
ATOM      5  H   UNL     1     -35.223  -9.810  19.266  0.00  0.00    +0.155 HD
BRANCH   4   6
ATOM      6  C   UNL     1     -34.481  -9.921  17.264  0.00  0.00    +0.034 A 
ATOM      7  C   UNL     1     -33.649 -11.052  17.236  0.00  0.00    +0.024 A 
ATOM      8  C   UNL     1     -33.378 -11.702  16.029  0.00  0.00    +0.015 A 
ATOM      9  C   UNL     1     -33.950 -11.247  14.827  0.00  0.00    +0.037 A 
ATOM     10  C   UNL     1     -34.792 -10.122  14.860  0.00  0.00    +0.015 A 
ATOM     11  C   UNL     1     -35.062  -9.474  16.070  0.00  0.00    +0.024 A 
BRANCH   9  12
ATOM     12  C   UNL     1     -33.648 -11.945  13.553  0.00  0.00    +0.242 C 
ATOM     13  N   UNL     1     -34.685 -12.334  12.649  0.00  0.00    -0.325 N 
ATOM     14  O   UNL     1     -32.452 -12.219  13.261  0.00  0.00    -0.270 OA
ATOM     15  H   UNL     1     -34.439 -12.770  11.732  0.00  0.00    +0.145 HD
ATOM     16  H   UNL     1     -35.693 -12.278  12.909  0.00  0.00    +0.145 HD
ENDBRANCH   9  12
ENDBRANCH   4   6
ENDBRANCH   1   2
BRANCH   1  17
ATOM     17  O   UNL     1     -33.495  -7.154  20.667  0.00  0.00    -0.483 OA
BRANCH  17  21
ATOM     18  C   UNL     1     -30.547 -10.178  20.553  0.00  0.00    -0.018 A 
ATOM     19  C   UNL     1     -31.656 -10.315  21.407  0.00  0.00    +0.012 A 
ATOM     20  C   UNL     1     -32.640  -9.324  21.458  0.00  0.00    +0.046 A 
ATOM     21  C   UNL     1     -32.534  -8.175  20.653  0.00  0.00    +0.121 A 
ATOM     22  C   UNL     1     -31.432  -8.038  19.803  0.00  0.00    +0.046 A 
ATOM     23  C   UNL     1     -30.447  -9.028  19.751  0.00  0.00    +0.012 A 
BRANCH  18  27
ATOM     24  C   UNL     1     -27.514 -13.224  20.399  0.00  0.00    +0.052 A 
ATOM     25  C   UNL     1     -28.243 -13.018  21.575  0.00  0.00    +0.019 A 
ATOM     26  C   UNL     1     -29.229 -12.029  21.626  0.00  0.00    +0.010 A 
ATOM     27  C   UNL     1     -29.500 -11.231  20.499  0.00  0.00    -0.018 A 
ATOM     28  C   UNL     1     -28.761 -11.445  19.321  0.00  0.00    +0.010 A 
ATOM     29  C   UNL     1     -27.774 -12.435  19.272  0.00  0.00    +0.019 A 
BRANCH  24  31
ATOM     30  N   UNL     1     -25.683 -15.062  20.305  0.00  0.00    -0.191 NA
ATOM     31  C   UNL     1     -26.499 -14.243  20.347  0.00  0.00    +0.099 C 
ENDBRANCH  24  31
ENDBRANCH  18  27
ENDBRANCH  17  21
ENDBRANCH   1  17
TORSDOF 7
ENDMDL
MODEL 4
REMARK VINA RESULT:    -3.468      3.149      6.840
REMARK INTER + INTRA:          -6.178
REMARK INTER:                  -5.221
REMARK INTRA:                  -0.957
REMARK UNBOUND:                -1.291
REMARK  Name = 
REMARK  7 active torsions:
REMARK  status: ('A' for Active; 'I' for Inactive)
REMARK    1  A    between atoms: C_2  and  C_3
REMARK    2  A    between atoms: C_6  and  C_9
REMARK    3  A    between atoms: C_12  and  O_15
REMARK    4  A    between atoms: O_15  and  C_16
REMARK    5  A    between atoms: C_16  and  C_17
REMARK    6  A    between atoms: N_19  and  C_20
REMARK    7  A    between atoms: C_23  and  C_26
REMARK                            x       y       z     vdW  Elec       q    Type
REMARK                         _______ _______ _______ _____ _____    ______ ____
ROOT
ATOM      1  C   UNL     1     -33.515 -12.537  12.599  0.00  0.00    +0.324 C 
ENDROOT
BRANCH   1   2
ATOM      2  C   UNL     1     -32.352 -12.530  13.540  0.00  0.00    +0.255 C 
ATOM      3  O   UNL     1     -31.509 -11.594  13.471  0.00  0.00    -0.272 OA
ATOM      4  N   UNL     1     -32.152 -13.626  14.447  0.00  0.00    -0.283 N 
ATOM      5  H   UNL     1     -32.671 -14.513  14.260  0.00  0.00    +0.155 HD
BRANCH   4   6
ATOM      6  C   UNL     1     -31.201 -13.615  15.526  0.00  0.00    +0.034 A 
ATOM      7  C   UNL     1     -29.849 -13.933  15.317  0.00  0.00    +0.024 A 
ATOM      8  C   UNL     1     -28.940 -13.893  16.378  0.00  0.00    +0.015 A 
ATOM      9  C   UNL     1     -29.360 -13.516  17.666  0.00  0.00    +0.037 A 
ATOM     10  C   UNL     1     -30.711 -13.187  17.870  0.00  0.00    +0.015 A 
ATOM     11  C   UNL     1     -31.619 -13.226  16.806  0.00  0.00    +0.024 A 
BRANCH   9  12
ATOM     12  C   UNL     1     -28.383 -13.484  18.783  0.00  0.00    +0.242 C 
ATOM     13  N   UNL     1     -28.606 -14.214  19.992  0.00  0.00    -0.325 N 
ATOM     14  O   UNL     1     -27.337 -12.788  18.677  0.00  0.00    -0.270 OA
ATOM     15  H   UNL     1     -27.874 -14.220  20.737  0.00  0.00    +0.145 HD
ATOM     16  H   UNL     1     -29.519 -14.674  20.198  0.00  0.00    +0.145 HD
ENDBRANCH   9  12
ENDBRANCH   4   6
ENDBRANCH   1   2
BRANCH   1  17
ATOM     17  O   UNL     1     -34.669 -12.026  13.261  0.00  0.00    -0.483 OA
BRANCH  17  21
ATOM     18  C   UNL     1     -34.571  -9.307  16.494  0.00  0.00    -0.018 A 
ATOM     19  C   UNL     1     -34.530  -8.825  15.173  0.00  0.00    +0.012 A 
ATOM     20  C   UNL     1     -34.560  -9.710  14.092  0.00  0.00    +0.046 A 
ATOM     21  C   UNL     1     -34.635 -11.098  14.312  0.00  0.00    +0.121 A 
ATOM     22  C   UNL     1     -34.676 -11.578  15.625  0.00  0.00    +0.046 A 
ATOM     23  C   UNL     1     -34.644 -10.694  16.707  0.00  0.00    +0.012 A 
BRANCH  18  27
ATOM     24  C   UNL     1     -34.474  -6.583  19.822  0.00  0.00    +0.052 A 
ATOM     25  C   UNL     1     -33.950  -7.873  19.954  0.00  0.00    +0.019 A 
ATOM     26  C   UNL     1     -33.981  -8.759  18.874  0.00  0.00    +0.010 A 
ATOM     27  C   UNL     1     -34.537  -8.366  17.643  0.00  0.00    -0.018 A 
ATOM     28  C   UNL     1     -35.062  -7.066  17.519  0.00  0.00    +0.010 A 
ATOM     29  C   UNL     1     -35.031  -6.182  18.601  0.00  0.00    +0.019 A 
BRANCH  24  31
ATOM     30  N   UNL     1     -34.417  -4.939  21.829  0.00  0.00    -0.191 NA
ATOM     31  C   UNL     1     -34.442  -5.672  20.934  0.00  0.00    +0.099 C 
ENDBRANCH  24  31
ENDBRANCH  18  27
ENDBRANCH  17  21
ENDBRANCH   1  17
TORSDOF 7
ENDMDL
MODEL 5
REMARK VINA RESULT:    -2.639      2.611      5.522
REMARK INTER + INTRA:          -5.010
REMARK INTER:                  -4.158
REMARK INTRA:                  -0.852
REMARK UNBOUND:                -1.291
REMARK  Name = 
REMARK  7 active torsions:
REMARK  status: ('A' for Active; 'I' for Inactive)
REMARK    1  A    between atoms: C_2  and  C_3
REMARK    2  A    between atoms: C_6  and  C_9
REMARK    3  A    between atoms: C_12  and  O_15
REMARK    4  A    between atoms: O_15  and  C_16
REMARK    5  A    between atoms: C_16  and  C_17
REMARK    6  A    between atoms: N_19  and  C_20
REMARK    7  A    between atoms: C_23  and  C_26
REMARK                            x       y       z     vdW  Elec       q    Type
REMARK                         _______ _______ _______ _____ _____    ______ ____
ROOT
ATOM      1  C   UNL     1     -32.725  -8.340  22.020  0.00  0.00    +0.324 C 
ENDROOT
BRANCH   1   2
ATOM      2  C   UNL     1     -33.096  -7.942  20.627  0.00  0.00    +0.255 C 
ATOM      3  O   UNL     1     -32.658  -6.857  20.158  0.00  0.00    -0.272 OA
ATOM      4  N   UNL     1     -34.016  -8.745  19.869  0.00  0.00    -0.283 N 
ATOM      5  H   UNL     1     -34.595  -9.443  20.388  0.00  0.00    +0.155 HD
BRANCH   4   6
ATOM      6  C   UNL     1     -34.269  -8.570  18.464  0.00  0.00    +0.034 A 
ATOM      7  C   UNL     1     -34.826  -7.383  17.960  0.00  0.00    +0.024 A 
ATOM      8  C   UNL     1     -35.041  -7.229  16.587  0.00  0.00    +0.015 A 
ATOM      9  C   UNL     1     -34.685  -8.251  15.688  0.00  0.00    +0.037 A 
ATOM     10  C   UNL     1     -34.117  -9.433  16.195  0.00  0.00    +0.015 A 
ATOM     11  C   UNL     1     -33.902  -9.584  17.569  0.00  0.00    +0.024 A 
BRANCH   9  12
ATOM     12  C   UNL     1     -34.925  -8.074  14.234  0.00  0.00    +0.242 C 
ATOM     13  N   UNL     1     -35.062  -9.194  13.357  0.00  0.00    -0.325 N 
ATOM     14  O   UNL     1     -34.996  -6.911  13.752  0.00  0.00    -0.270 OA
ATOM     15  H   UNL     1     -35.290  -9.041  12.350  0.00  0.00    +0.145 HD
ATOM     16  H   UNL     1     -34.856 -10.168  13.670  0.00  0.00    +0.145 HD
ENDBRANCH   9  12
ENDBRANCH   4   6
ENDBRANCH   1   2
BRANCH   1  17
ATOM     17  O   UNL     1     -31.929  -9.522  21.984  0.00  0.00    -0.483 OA
BRANCH  17  21
ATOM     18  C   UNL     1     -31.007 -11.642  18.448  0.00  0.00    -0.018 A 
ATOM     19  C   UNL     1     -31.908 -12.192  19.378  0.00  0.00    +0.012 A 
ATOM     20  C   UNL     1     -32.224 -11.505  20.553  0.00  0.00    +0.046 A 
ATOM     21  C   UNL     1     -31.644 -10.251  20.820  0.00  0.00    +0.121 A 
ATOM     22  C   UNL     1     -30.748  -9.703  19.896  0.00  0.00    +0.046 A 
ATOM     23  C   UNL     1     -30.430 -10.390  18.721  0.00  0.00    +0.012 A 
BRANCH  18  27
ATOM     24  C   UNL     1     -30.032 -13.762  14.834  0.00  0.00    +0.052 A 
ATOM     25  C   UNL     1     -31.285 -13.159  14.978  0.00  0.00    +0.019 A 
ATOM     26  C   UNL     1     -31.604 -12.470  16.151  0.00  0.00    +0.010 A 
ATOM     27  C   UNL     1     -30.670 -12.373  17.200  0.00  0.00    -0.018 A 
ATOM     28  C   UNL     1     -29.411 -12.984  17.046  0.00  0.00    +0.010 A 
ATOM     29  C   UNL     1     -29.095 -13.673  15.871  0.00  0.00    +0.019 A 
BRANCH  24  31
ATOM     30  N   UNL     1     -29.441 -15.041  12.654  0.00  0.00    -0.191 NA
ATOM     31  C   UNL     1     -29.705 -14.471  13.626  0.00  0.00    +0.099 C 
ENDBRANCH  24  31
ENDBRANCH  18  27
ENDBRANCH  17  21
ENDBRANCH   1  17
TORSDOF 7
ENDMDL
MODEL 6
REMARK VINA RESULT:    -2.527      1.874      2.824
REMARK INTER + INTRA:          -4.851
REMARK INTER:                  -4.944
REMARK INTRA:                   0.092
REMARK UNBOUND:                -1.291
REMARK  Name = 
REMARK  7 active torsions:
REMARK  status: ('A' for Active; 'I' for Inactive)
REMARK    1  A    between atoms: C_2  and  C_3
REMARK    2  A    between atoms: C_6  and  C_9
REMARK    3  A    between atoms: C_12  and  O_15
REMARK    4  A    between atoms: O_15  and  C_16
REMARK    5  A    between atoms: C_16  and  C_17
REMARK    6  A    between atoms: N_19  and  C_20
REMARK    7  A    between atoms: C_23  and  C_26
REMARK                            x       y       z     vdW  Elec       q    Type
REMARK                         _______ _______ _______ _____ _____    ______ ____
ROOT
ATOM      1  C   UNL     1     -32.485  -7.105  22.017  0.00  0.00    +0.324 C 
ENDROOT
BRANCH   1   2
ATOM      2  C   UNL     1     -31.372  -7.975  21.524  0.00  0.00    +0.255 C 
ATOM      3  O   UNL     1     -30.240  -7.464  21.310  0.00  0.00    -0.272 OA
ATOM      4  N   UNL     1     -31.620  -9.355  21.213  0.00  0.00    -0.283 N 
ATOM      5  H   UNL     1     -32.614  -9.657  21.096  0.00  0.00    +0.155 HD
BRANCH   4   6
ATOM      6  C   UNL     1     -30.587 -10.318  20.941  0.00  0.00    +0.034 A 
ATOM      7  C   UNL     1     -29.905 -10.976  21.979  0.00  0.00    +0.024 A 
ATOM      8  C   UNL     1     -28.920 -11.925  21.689  0.00  0.00    +0.015 A 
ATOM      9  C   UNL     1     -28.611 -12.251  20.356  0.00  0.00    +0.037 A 
ATOM     10  C   UNL     1     -29.304 -11.599  19.320  0.00  0.00    +0.015 A 
ATOM     11  C   UNL     1     -30.289 -10.651  19.613  0.00  0.00    +0.024 A 
BRANCH   9  12
ATOM     12  C   UNL     1     -27.559 -13.256  20.065  0.00  0.00    +0.242 C 
ATOM     13  N   UNL     1     -27.715 -14.629  20.430  0.00  0.00    -0.325 N 
ATOM     14  O   UNL     1     -26.493 -12.896  19.496  0.00  0.00    -0.270 OA
ATOM     15  H   UNL     1     -26.985 -15.326  20.160  0.00  0.00    +0.145 HD
ATOM     16  H   UNL     1     -28.498 -14.952  21.039  0.00  0.00    +0.145 HD
ENDBRANCH   9  12
ENDBRANCH   4   6
ENDBRANCH   1   2
BRANCH   1  17
ATOM     17  O   UNL     1     -33.650  -7.325  21.225  0.00  0.00    -0.483 OA
BRANCH  17  21
ATOM     18  C   UNL     1     -33.743  -9.619  17.678  0.00  0.00    -0.018 A 
ATOM     19  C   UNL     1     -33.335  -8.274  17.630  0.00  0.00    +0.012 A 
ATOM     20  C   UNL     1     -33.299  -7.500  18.794  0.00  0.00    +0.046 A 
ATOM     21  C   UNL     1     -33.670  -8.059  20.031  0.00  0.00    +0.121 A 
ATOM     22  C   UNL     1     -34.076  -9.397  20.079  0.00  0.00    +0.046 A 
ATOM     23  C   UNL     1     -34.113 -10.171  18.916  0.00  0.00    +0.012 A 
BRANCH  18  27
ATOM     24  C   UNL     1     -33.860 -12.000  14.098  0.00  0.00    +0.052 A 
ATOM     25  C   UNL     1     -34.765 -10.948  14.271  0.00  0.00    +0.019 A 
ATOM     26  C   UNL     1     -34.728 -10.173  15.434  0.00  0.00    +0.010 A 
ATOM     27  C   UNL     1     -33.783 -10.440  16.442  0.00  0.00    -0.018 A 
ATOM     28  C   UNL     1     -32.876 -11.501  16.258  0.00  0.00    +0.010 A 
ATOM     29  C   UNL     1     -32.915 -12.276  15.094  0.00  0.00    +0.019 A 
BRANCH  24  31
ATOM     30  N   UNL     1     -33.929 -13.438  11.938  0.00  0.00    -0.191 NA
ATOM     31  C   UNL     1     -33.898 -12.797  12.900  0.00  0.00    +0.099 C 
ENDBRANCH  24  31
ENDBRANCH  18  27
ENDBRANCH  17  21
ENDBRANCH   1  17
TORSDOF 7
ENDMDL
MODEL 7
REMARK VINA RESULT:    -2.139      3.405      6.670
REMARK INTER + INTRA:          -4.305
REMARK INTER:                  -4.652
REMARK INTRA:                   0.347
REMARK UNBOUND:                -1.291
REMARK  Name = 
REMARK  7 active torsions:
REMARK  status: ('A' for Active; 'I' for Inactive)
REMARK    1  A    between atoms: C_2  and  C_3
REMARK    2  A    between atoms: C_6  and  C_9
REMARK    3  A    between atoms: C_12  and  O_15
REMARK    4  A    between atoms: O_15  and  C_16
REMARK    5  A    between atoms: C_16  and  C_17
REMARK    6  A    between atoms: N_19  and  C_20
REMARK    7  A    between atoms: C_23  and  C_26
REMARK                            x       y       z     vdW  Elec       q    Type
REMARK                         _______ _______ _______ _____ _____    ______ ____
ROOT
ATOM      1  C   UNL     1     -34.144 -10.526  13.651  0.00  0.00    +0.324 C 
ENDROOT
BRANCH   1   2
ATOM      2  C   UNL     1     -34.337  -9.456  14.679  0.00  0.00    +0.255 C 
ATOM      3  O   UNL     1     -35.055  -8.458  14.401  0.00  0.00    -0.272 OA
ATOM      4  N   UNL     1     -33.636  -9.524  15.931  0.00  0.00    -0.283 N 
ATOM      5  H   UNL     1     -32.824 -10.178  15.999  0.00  0.00    +0.155 HD
BRANCH   4   6
ATOM      6  C   UNL     1     -33.913  -8.672  17.056  0.00  0.00    +0.034 A 
ATOM      7  C   UNL     1     -34.753  -7.552  16.941  0.00  0.00    +0.024 A 
ATOM      8  C   UNL     1     -35.024  -6.753  18.055  0.00  0.00    +0.015 A 
ATOM      9  C   UNL     1     -34.478  -7.068  19.312  0.00  0.00    +0.037 A 
ATOM     10  C   UNL     1     -33.647  -8.197  19.427  0.00  0.00    +0.015 A 
ATOM     11  C   UNL     1     -33.378  -8.995  18.310  0.00  0.00    +0.024 A 
BRANCH   9  12
ATOM     12  C   UNL     1     -34.771  -6.206  20.484  0.00  0.00    +0.242 C 
ATOM     13  N   UNL     1     -34.774  -6.728  21.815  0.00  0.00    -0.325 N 
ATOM     14  O   UNL     1     -35.040  -4.987  20.308  0.00  0.00    -0.270 OA
ATOM     15  H   UNL     1     -34.925  -6.086  22.624  0.00  0.00    +0.145 HD
ATOM     16  H   UNL     1     -34.716  -7.752  22.006  0.00  0.00    +0.145 HD
ENDBRANCH   9  12
ENDBRANCH   4   6
ENDBRANCH   1   2
BRANCH   1  17
ATOM     17  O   UNL     1     -33.978 -11.786  14.298  0.00  0.00    -0.483 OA
BRANCH  17  21
ATOM     18  C   UNL     1     -31.066 -12.526  17.269  0.00  0.00    -0.018 A 
ATOM     19  C   UNL     1     -32.418 -12.815  17.527  0.00  0.00    +0.012 A 
ATOM     20  C   UNL     1     -33.394 -12.576  16.557  0.00  0.00    +0.046 A 
ATOM     21  C   UNL     1     -33.036 -12.043  15.305  0.00  0.00    +0.121 A 
ATOM     22  C   UNL     1     -31.692 -11.754  15.046  0.00  0.00    +0.046 A 
ATOM     23  C   UNL     1     -30.715 -11.992  16.017  0.00  0.00    +0.012 A 
BRANCH  18  27
ATOM     24  C   UNL     1     -28.061 -13.259  20.257  0.00  0.00    +0.052 A 
ATOM     25  C   UNL     1     -27.696 -12.755  19.004  0.00  0.00    +0.019 A 
ATOM     26  C   UNL     1     -28.672 -12.517  18.032  0.00  0.00    +0.010 A 
ATOM     27  C   UNL     1     -30.028 -12.778  18.301  0.00  0.00    -0.018 A 
ATOM     28  C   UNL     1     -30.385 -13.285  19.564  0.00  0.00    +0.010 A 
ATOM     29  C   UNL     1     -29.407 -13.524  20.536  0.00  0.00    +0.019 A 
BRANCH  24  31
ATOM     30  N   UNL     1     -26.248 -13.702  22.062  0.00  0.00    -0.191 NA
ATOM     31  C   UNL     1     -27.056 -13.505  21.257  0.00  0.00    +0.099 C 
ENDBRANCH  24  31
ENDBRANCH  18  27
ENDBRANCH  17  21
ENDBRANCH   1  17
TORSDOF 7
ENDMDL
MODEL 8
REMARK VINA RESULT:    -2.014      2.856      8.319
REMARK INTER + INTRA:          -4.130
REMARK INTER:                  -3.321
REMARK INTRA:                  -0.809
REMARK UNBOUND:                -1.291
REMARK  Name = 
REMARK  7 active torsions:
REMARK  status: ('A' for Active; 'I' for Inactive)
REMARK    1  A    between atoms: C_2  and  C_3
REMARK    2  A    between atoms: C_6  and  C_9
REMARK    3  A    between atoms: C_12  and  O_15
REMARK    4  A    between atoms: O_15  and  C_16
REMARK    5  A    between atoms: C_16  and  C_17
REMARK    6  A    between atoms: N_19  and  C_20
REMARK    7  A    between atoms: C_23  and  C_26
REMARK                            x       y       z     vdW  Elec       q    Type
REMARK                         _______ _______ _______ _____ _____    ______ ____
ROOT
ATOM      1  C   UNL     1     -28.089 -13.782  17.896  0.00  0.00    +0.324 C 
ENDROOT
BRANCH   1   2
ATOM      2  C   UNL     1     -29.374 -13.709  17.134  0.00  0.00    +0.255 C 
ATOM      3  O   UNL     1     -30.404 -14.261  17.609  0.00  0.00    -0.272 OA
ATOM      4  N   UNL     1     -29.408 -13.097  15.835  0.00  0.00    -0.283 N 
ATOM      5  H   UNL     1     -28.498 -12.942  15.346  0.00  0.00    +0.155 HD
BRANCH   4   6
ATOM      6  C   UNL     1     -30.618 -12.787  15.122  0.00  0.00    +0.034 A 
ATOM      7  C   UNL     1     -30.934 -13.413  13.904  0.00  0.00    +0.024 A 
ATOM      8  C   UNL     1     -32.127 -13.112  13.241  0.00  0.00    +0.015 A 
ATOM      9  C   UNL     1     -33.039 -12.195  13.792  0.00  0.00    +0.037 A 
ATOM     10  C   UNL     1     -32.727 -11.579  15.017  0.00  0.00    +0.015 A 
ATOM     11  C   UNL     1     -31.532 -11.883  15.678  0.00  0.00    +0.024 A 
BRANCH   9  12
ATOM     12  C   UNL     1     -34.300 -11.882  13.073  0.00  0.00    +0.242 C 
ATOM     13  N   UNL     1     -35.061 -12.900  12.420  0.00  0.00    -0.325 N 
ATOM     14  O   UNL     1     -34.707 -10.690  13.021  0.00  0.00    -0.270 OA
ATOM     15  H   UNL     1     -35.974 -12.660  11.973  0.00  0.00    +0.145 HD
ATOM     16  H   UNL     1     -34.694 -13.868  12.296  0.00  0.00    +0.145 HD
ENDBRANCH   9  12
ENDBRANCH   4   6
ENDBRANCH   1   2
BRANCH   1  17
ATOM     17  O   UNL     1     -28.288 -13.288  19.218  0.00  0.00    -0.483 OA
BRANCH  17  21
ATOM     18  C   UNL     1     -30.847 -10.095  20.272  0.00  0.00    -0.018 A 
ATOM     19  C   UNL     1     -29.902  -9.924  19.245  0.00  0.00    +0.012 A 
ATOM     20  C   UNL     1     -29.047 -10.969  18.884  0.00  0.00    +0.046 A 
ATOM     21  C   UNL     1     -29.123 -12.209  19.544  0.00  0.00    +0.121 A 
ATOM     22  C   UNL     1     -30.063 -12.381  20.566  0.00  0.00    +0.046 A 
ATOM     23  C   UNL     1     -30.917 -11.336  20.928  0.00  0.00    +0.012 A 
BRANCH  18  27
ATOM     24  C   UNL     1     -33.475  -6.878  21.389  0.00  0.00    +0.052 A 
ATOM     25  C   UNL     1     -32.090  -6.728  21.512  0.00  0.00    +0.019 A 
ATOM     26  C   UNL     1     -31.235  -7.773  21.150  0.00  0.00    +0.010 A 
ATOM     27  C   UNL     1     -31.754  -8.984  20.657  0.00  0.00    -0.018 A 
ATOM     28  C   UNL     1     -33.150  -9.126  20.537  0.00  0.00    +0.010 A 
ATOM     29  C   UNL     1     -34.004  -8.080  20.901  0.00  0.00    +0.019 A 
BRANCH  24  31
ATOM     30  N   UNL     1     -35.062  -4.938  22.062  0.00  0.00    -0.191 NA
ATOM     31  C   UNL     1     -34.354  -5.803  21.762  0.00  0.00    +0.099 C 
ENDBRANCH  24  31
ENDBRANCH  18  27
ENDBRANCH  17  21
ENDBRANCH   1  17
TORSDOF 7
ENDMDL
