MODEL 1
REMARK VINA RESULT:    -4.918      0.000      0.000
REMARK INTER + INTRA:          -8.150
REMARK INTER:                  -7.218
REMARK INTRA:                  -0.932
REMARK UNBOUND:                -0.932
REMARK  Name = 
REMARK  9 active torsions:
REMARK  status: ('A' for Active; 'I' for Inactive)
REMARK    1  A    between atoms: C_1  and  O_2
REMARK    2  A    between atoms: O_2  and  C_3
REMARK    3  A    between atoms: C_5  and  C_6
REMARK    4  A    between atoms: C_11  and  O_12
REMARK    5  A    between atoms: O_12  and  C_13
REMARK    6  A    between atoms: C_13  and  C_14
REMARK    7  A    between atoms: C_18  and  O_20
REMARK    8  A    between atoms: O_20  and  C_21
REMARK    9  A    between atoms: C_21  and  C_22
REMARK                            x       y       z     vdW  Elec       q    Type
REMARK                         _______ _______ _______ _____ _____    ______ ____
ROOT
ATOM      1  C   UNL     1     -32.707 -10.797  15.452  0.00  0.00    +0.265 C 
ENDROOT
BRANCH   1   2
ATOM      2  C   UNL     1     -32.750 -11.660  14.216  0.00  0.00    -0.007 A 
ATOM      3  C   UNL     1     -33.938 -11.779  13.478  0.00  0.00    +0.007 A 
ATOM      4  C   UNL     1     -33.981 -12.590  12.341  0.00  0.00    +0.004 A 
ATOM      5  C   UNL     1     -32.846 -13.298  11.939  0.00  0.00    +0.045 A 
ATOM      6  C   UNL     1     -31.653 -13.205  12.680  0.00  0.00    +0.122 A 
ATOM      7  C   UNL     1     -31.618 -12.393  13.821  0.00  0.00    +0.052 A 
BRANCH   6   8
ATOM      8  O   UNL     1     -30.487 -13.897  12.321  0.00  0.00    -0.483 OA
BRANCH   8   9
ATOM      9  C   UNL     1     -29.997 -15.052  12.995  0.00  0.00    +0.324 C 
BRANCH   9  10
ATOM     10  C   UNL     1     -28.608 -14.787  13.474  0.00  0.00    +0.248 C 
ATOM     11  N   UNL     1     -28.253 -15.042  14.833  0.00  0.00    -0.327 N 
ATOM     12  O   UNL     1     -27.755 -14.296  12.688  0.00  0.00    -0.272 OA
ATOM     13  H   UNL     1     -27.283 -14.844  15.170  0.00  0.00    +0.145 HD
ATOM     14  H   UNL     1     -28.954 -15.425  15.504  0.00  0.00    +0.145 HD
ENDBRANCH   9  10
ENDBRANCH   8   9
ENDBRANCH   6   8
ENDBRANCH   1   2
BRANCH   1  15
ATOM     15  O   UNL     1     -32.320 -11.552  16.601  0.00  0.00    -0.482 OA
BRANCH  15  22
ATOM     16  C   UNL     1     -30.331 -10.491  17.672  0.00  0.00    +0.164 A 
ATOM     17  C   UNL     1     -29.041 -10.669  18.212  0.00  0.00    +0.068 A 
ATOM     18  C   UNL     1     -28.468 -11.941  18.290  0.00  0.00    +0.057 A 
ATOM     19  C   UNL     1     -29.177 -13.052  17.835  0.00  0.00    +0.042 A 
ATOM     20  C   UNL     1     -30.454 -12.895  17.290  0.00  0.00    +0.087 A 
ATOM     21 CL   UNL     1     -31.308 -14.317  16.707  0.00  0.00    -0.080 Cl
ATOM     22  C   UNL     1     -31.041 -11.622  17.188  0.00  0.00    +0.181 A 
BRANCH  16  24
ATOM     23  C   UNL     1     -31.851  -8.716  18.585  0.00  0.00    +0.277 C 
ATOM     24  O   UNL     1     -30.925  -9.220  17.627  0.00  0.00    -0.491 OA
ENDBRANCH  16  24
BRANCH  18  25
ATOM     25  C   UNL     1     -27.151 -12.107  18.848  0.00  0.00    +0.099 C 
ATOM     26  N   UNL     1     -26.092 -12.240  19.296  0.00  0.00    -0.191 NA
ENDBRANCH  18  25
ENDBRANCH  15  22
ENDBRANCH   1  15
TORSDOF 8
ENDMDL
MODEL 2
REMARK VINA RESULT:    -4.416      1.929      2.109
REMARK INTER + INTRA:          -7.414
REMARK INTER:                  -6.378
REMARK INTRA:                  -1.035
REMARK UNBOUND:                -0.932
REMARK  Name = 
REMARK  9 active torsions:
REMARK  status: ('A' for Active; 'I' for Inactive)
REMARK    1  A    between atoms: C_1  and  O_2
REMARK    2  A    between atoms: O_2  and  C_3
REMARK    3  A    between atoms: C_5  and  C_6
REMARK    4  A    between atoms: C_11  and  O_12
REMARK    5  A    between atoms: O_12  and  C_13
REMARK    6  A    between atoms: C_13  and  C_14
REMARK    7  A    between atoms: C_18  and  O_20
REMARK    8  A    between atoms: O_20  and  C_21
REMARK    9  A    between atoms: C_21  and  C_22
REMARK                            x       y       z     vdW  Elec       q    Type
REMARK                         _______ _______ _______ _____ _____    ______ ____
ROOT
ATOM      1  C   UNL     1     -31.539  -9.738  16.603  0.00  0.00    +0.265 C 
ENDROOT
BRANCH   1   2
ATOM      2  C   UNL     1     -31.977 -10.652  15.486  0.00  0.00    -0.007 A 
ATOM      3  C   UNL     1     -33.223 -10.466  14.868  0.00  0.00    +0.007 A 
ATOM      4  C   UNL     1     -33.635 -11.321  13.843  0.00  0.00    +0.004 A 
ATOM      5  C   UNL     1     -32.815 -12.376  13.436  0.00  0.00    +0.045 A 
ATOM      6  C   UNL     1     -31.572 -12.588  14.060  0.00  0.00    +0.122 A 
ATOM      7  C   UNL     1     -31.166 -11.729  15.089  0.00  0.00    +0.052 A 
BRANCH   6   8
ATOM      8  O   UNL     1     -30.712 -13.634  13.691  0.00  0.00    -0.483 OA
BRANCH   8   9
ATOM      9  C   UNL     1     -30.415 -14.759  14.512  0.00  0.00    +0.324 C 
BRANCH   9  10
ATOM     10  C   UNL     1     -28.999 -14.664  14.979  0.00  0.00    +0.248 C 
ATOM     11  N   UNL     1     -28.705 -14.542  16.369  0.00  0.00    -0.327 N 
ATOM     12  O   UNL     1     -28.061 -14.649  14.138  0.00  0.00    -0.272 OA
ATOM     13  H   UNL     1     -27.714 -14.463  16.694  0.00  0.00    +0.145 HD
ATOM     14  H   UNL     1     -29.471 -14.528  17.077  0.00  0.00    +0.145 HD
ENDBRANCH   9  10
ENDBRANCH   8   9
ENDBRANCH   6   8
ENDBRANCH   1   2
BRANCH   1  15
ATOM     15  O   UNL     1     -31.924 -10.253  17.878  0.00  0.00    -0.482 OA
BRANCH  15  22
ATOM     16  C   UNL     1     -30.123 -10.409  19.598  0.00  0.00    +0.164 A 
ATOM     17  C   UNL     1     -29.360 -11.242  20.443  0.00  0.00    +0.068 A 
ATOM     18  C   UNL     1     -29.597 -12.619  20.493  0.00  0.00    +0.057 A 
ATOM     19  C   UNL     1     -30.601 -13.181  19.704  0.00  0.00    +0.042 A 
ATOM     20  C   UNL     1     -31.362 -12.372  18.856  0.00  0.00    +0.087 A 
ATOM     21 CL   UNL     1     -32.604 -13.120  17.862  0.00  0.00    -0.080 Cl
ATOM     22  C   UNL     1     -31.128 -10.989  18.780  0.00  0.00    +0.181 A 
BRANCH  16  24
ATOM     23  C   UNL     1     -30.687  -8.066  20.290  0.00  0.00    +0.277 C 
ATOM     24  O   UNL     1     -29.913  -9.022  19.574  0.00  0.00    -0.491 OA
ENDBRANCH  16  24
BRANCH  18  25
ATOM     25  C   UNL     1     -28.813 -13.455  21.363  0.00  0.00    +0.099 C 
ATOM     26  N   UNL     1     -28.182 -14.128  22.062  0.00  0.00    -0.191 NA
ENDBRANCH  18  25
ENDBRANCH  15  22
ENDBRANCH   1  15
TORSDOF 8
ENDMDL
MODEL 3
REMARK VINA RESULT:    -4.383      3.035      4.564
REMARK INTER + INTRA:          -7.365
REMARK INTER:                  -6.537
REMARK INTRA:                  -0.828
REMARK UNBOUND:                -0.932
REMARK  Name = 
REMARK  9 active torsions:
REMARK  status: ('A' for Active; 'I' for Inactive)
REMARK    1  A    between atoms: C_1  and  O_2
REMARK    2  A    between atoms: O_2  and  C_3
REMARK    3  A    between atoms: C_5  and  C_6
REMARK    4  A    between atoms: C_11  and  O_12
REMARK    5  A    between atoms: O_12  and  C_13
REMARK    6  A    between atoms: C_13  and  C_14
REMARK    7  A    between atoms: C_18  and  O_20
REMARK    8  A    between atoms: O_20  and  C_21
REMARK    9  A    between atoms: C_21  and  C_22
REMARK                            x       y       z     vdW  Elec       q    Type
REMARK                         _______ _______ _______ _____ _____    ______ ____
ROOT
ATOM      1  C   UNL     1     -30.258 -13.707  16.782  0.00  0.00    +0.265 C 
ENDROOT
BRANCH   1   2
ATOM      2  C   UNL     1     -30.233 -13.978  15.299  0.00  0.00    -0.007 A 
ATOM      3  C   UNL     1     -29.248 -14.814  14.750  0.00  0.00    +0.007 A 
ATOM      4  C   UNL     1     -29.216 -15.053  13.375  0.00  0.00    +0.004 A 
ATOM      5  C   UNL     1     -30.155 -14.451  12.534  0.00  0.00    +0.045 A 
ATOM      6  C   UNL     1     -31.136 -13.593  13.067  0.00  0.00    +0.122 A 
ATOM      7  C   UNL     1     -31.161 -13.355  14.446  0.00  0.00    +0.052 A 
BRANCH   6   8
ATOM      8  O   UNL     1     -32.099 -12.962  12.266  0.00  0.00    -0.483 OA
BRANCH   8   9
ATOM      9  C   UNL     1     -33.467 -13.351  12.196  0.00  0.00    +0.324 C 
BRANCH   9  10
ATOM     10  C   UNL     1     -34.315 -12.271  12.784  0.00  0.00    +0.248 C 
ATOM     11  N   UNL     1     -35.062 -11.399  11.938  0.00  0.00    -0.327 N 
ATOM     12  O   UNL     1     -34.339 -12.102  14.032  0.00  0.00    -0.272 OA
ATOM     13  H   UNL     1     -35.645 -10.636  12.350  0.00  0.00    +0.145 HD
ATOM     14  H   UNL     1     -35.034 -11.510  10.900  0.00  0.00    +0.145 HD
ENDBRANCH   9  10
ENDBRANCH   8   9
ENDBRANCH   6   8
ENDBRANCH   1   2
BRANCH   1  15
ATOM     15  O   UNL     1     -29.472 -12.561  17.117  0.00  0.00    -0.482 OA
BRANCH  15  22
ATOM     16  C   UNL     1     -29.429 -11.783  19.487  0.00  0.00    +0.164 A 
ATOM     17  C   UNL     1     -29.770 -10.771  20.408  0.00  0.00    +0.068 A 
ATOM     18  C   UNL     1     -30.386  -9.592  19.979  0.00  0.00    +0.057 A 
ATOM     19  C   UNL     1     -30.668  -9.408  18.625  0.00  0.00    +0.042 A 
ATOM     20  C   UNL     1     -30.345 -10.403  17.699  0.00  0.00    +0.087 A 
ATOM     21 CL   UNL     1     -30.735 -10.143  16.005  0.00  0.00    -0.080 Cl
ATOM     22  C   UNL     1     -29.739 -11.602  18.113  0.00  0.00    +0.181 A 
BRANCH  16  24
ATOM     23  C   UNL     1     -27.363 -13.128  19.946  0.00  0.00    +0.277 C 
ATOM     24  O   UNL     1     -28.775 -12.951  19.909  0.00  0.00    -0.491 OA
ENDBRANCH  16  24
BRANCH  18  25
ATOM     25  C   UNL     1     -30.724  -8.566  20.931  0.00  0.00    +0.099 C 
ATOM     26  N   UNL     1     -30.996  -7.741  21.695  0.00  0.00    -0.191 NA
ENDBRANCH  18  25
ENDBRANCH  15  22
ENDBRANCH   1  15
TORSDOF 8
ENDMDL
MODEL 4
REMARK VINA RESULT:    -4.151      3.043      5.125
REMARK INTER + INTRA:          -7.025
REMARK INTER:                  -6.091
REMARK INTRA:                  -0.934
REMARK UNBOUND:                -0.932
REMARK  Name = 
REMARK  9 active torsions:
REMARK  status: ('A' for Active; 'I' for Inactive)
REMARK    1  A    between atoms: C_1  and  O_2
REMARK    2  A    between atoms: O_2  and  C_3
REMARK    3  A    between atoms: C_5  and  C_6
REMARK    4  A    between atoms: C_11  and  O_12
REMARK    5  A    between atoms: O_12  and  C_13
REMARK    6  A    between atoms: C_13  and  C_14
REMARK    7  A    between atoms: C_18  and  O_20
REMARK    8  A    between atoms: O_20  and  C_21
REMARK    9  A    between atoms: C_21  and  C_22
REMARK                            x       y       z     vdW  Elec       q    Type
REMARK                         _______ _______ _______ _____ _____    ______ ____
ROOT
ATOM      1  C   UNL     1     -32.116 -11.602  14.277  0.00  0.00    +0.265 C 
ENDROOT
BRANCH   1   2
ATOM      2  C   UNL     1     -31.288 -12.777  14.732  0.00  0.00    -0.007 A 
ATOM      3  C   UNL     1     -30.632 -13.586  13.791  0.00  0.00    +0.007 A 
ATOM      4  C   UNL     1     -29.876 -14.682  14.211  0.00  0.00    +0.004 A 
ATOM      5  C   UNL     1     -29.780 -14.991  15.570  0.00  0.00    +0.045 A 
ATOM      6  C   UNL     1     -30.449 -14.202  16.524  0.00  0.00    +0.122 A 
ATOM      7  C   UNL     1     -31.207 -13.105  16.096  0.00  0.00    +0.052 A 
BRANCH   6   8
ATOM      8  O   UNL     1     -30.387 -14.470  17.900  0.00  0.00    -0.483 OA
BRANCH   8   9
ATOM      9  C   UNL     1     -30.412 -13.472  18.916  0.00  0.00    +0.324 C 
BRANCH   9  10
ATOM     10  C   UNL     1     -29.026 -13.262  19.432  0.00  0.00    +0.248 C 
ATOM     11  N   UNL     1     -28.286 -14.354  19.977  0.00  0.00    -0.327 N 
ATOM     12  O   UNL     1     -28.523 -12.107  19.427  0.00  0.00    -0.272 OA
ATOM     13  H   UNL     1     -27.322 -14.203  20.349  0.00  0.00    +0.145 HD
ATOM     14  H   UNL     1     -28.698 -15.312  20.011  0.00  0.00    +0.145 HD
ENDBRANCH   9  10
ENDBRANCH   8   9
ENDBRANCH   6   8
ENDBRANCH   1   2
BRANCH   1  15
ATOM     15  O   UNL     1     -31.698 -10.393  14.911  0.00  0.00    -0.482 OA
BRANCH  15  22
ATOM     16  C   UNL     1     -33.641  -9.379  16.104  0.00  0.00    +0.164 A 
ATOM     17  C   UNL     1     -34.112  -8.732  17.265  0.00  0.00    +0.068 A 
ATOM     18  C   UNL     1     -33.259  -8.493  18.346  0.00  0.00    +0.057 A 
ATOM     19  C   UNL     1     -31.926  -8.899  18.283  0.00  0.00    +0.042 A 
ATOM     20  C   UNL     1     -31.439  -9.535  17.138  0.00  0.00    +0.087 A 
ATOM     21 CL   UNL     1     -29.749 -10.013  17.088  0.00  0.00    -0.080 Cl
ATOM     22  C   UNL     1     -32.278  -9.770  16.035  0.00  0.00    +0.181 A 
BRANCH  16  24
ATOM     23  C   UNL     1     -35.002  -8.688  14.114  0.00  0.00    +0.277 C 
ATOM     24  O   UNL     1     -34.505  -9.655  15.033  0.00  0.00    -0.491 OA
ENDBRANCH  16  24
BRANCH  18  25
ATOM     25  C   UNL     1     -33.755  -7.835  19.526  0.00  0.00    +0.099 C 
ATOM     26  N   UNL     1     -34.155  -7.306  20.475  0.00  0.00    -0.191 NA
ENDBRANCH  18  25
ENDBRANCH  15  22
ENDBRANCH   1  15
TORSDOF 8
ENDMDL
MODEL 5
REMARK VINA RESULT:    -4.056      2.790      4.271
REMARK INTER + INTRA:          -6.885
REMARK INTER:                  -5.862
REMARK INTRA:                  -1.023
REMARK UNBOUND:                -0.932
REMARK  Name = 
REMARK  9 active torsions:
REMARK  status: ('A' for Active; 'I' for Inactive)
REMARK    1  A    between atoms: C_1  and  O_2
REMARK    2  A    between atoms: O_2  and  C_3
REMARK    3  A    between atoms: C_5  and  C_6
REMARK    4  A    between atoms: C_11  and  O_12
REMARK    5  A    between atoms: O_12  and  C_13
REMARK    6  A    between atoms: C_13  and  C_14
REMARK    7  A    between atoms: C_18  and  O_20
REMARK    8  A    between atoms: O_20  and  C_21
REMARK    9  A    between atoms: C_21  and  C_22
REMARK                            x       y       z     vdW  Elec       q    Type
REMARK                         _______ _______ _______ _____ _____    ______ ____
ROOT
ATOM      1  C   UNL     1     -29.519 -13.797  16.745  0.00  0.00    +0.265 C 
ENDROOT
BRANCH   1   2
ATOM      2  C   UNL     1     -29.678 -14.136  15.285  0.00  0.00    -0.007 A 
ATOM      3  C   UNL     1     -28.610 -14.699  14.570  0.00  0.00    +0.007 A 
ATOM      4  C   UNL     1     -28.752 -15.000  13.214  0.00  0.00    +0.004 A 
ATOM      5  C   UNL     1     -29.954 -14.729  12.555  0.00  0.00    +0.045 A 
ATOM      6  C   UNL     1     -31.027 -14.144  13.254  0.00  0.00    +0.122 A 
ATOM      7  C   UNL     1     -30.877 -13.843  14.613  0.00  0.00    +0.052 A 
BRANCH   6   8
ATOM      8  O   UNL     1     -32.254 -13.849  12.639  0.00  0.00    -0.483 OA
BRANCH   8   9
ATOM      9  C   UNL     1     -32.533 -12.641  11.939  0.00  0.00    +0.324 C 
BRANCH   9  10
ATOM     10  C   UNL     1     -33.924 -12.200  12.257  0.00  0.00    +0.248 C 
ATOM     11  N   UNL     1     -34.898 -13.145  12.698  0.00  0.00    -0.327 N 
ATOM     12  O   UNL     1     -34.252 -10.994  12.095  0.00  0.00    -0.272 OA
ATOM     13  H   UNL     1     -35.874 -12.836  12.909  0.00  0.00    +0.145 HD
ATOM     14  H   UNL     1     -34.649 -14.152  12.814  0.00  0.00    +0.145 HD
ENDBRANCH   9  10
ENDBRANCH   8   9
ENDBRANCH   6   8
ENDBRANCH   1   2
BRANCH   1  15
ATOM     15  O   UNL     1     -30.680 -13.140  17.257  0.00  0.00    -0.482 OA
BRANCH  15  22
ATOM     16  C   UNL     1     -30.880 -10.652  17.247  0.00  0.00    +0.164 A 
ATOM     17  C   UNL     1     -30.894  -9.462  18.003  0.00  0.00    +0.068 A 
ATOM     18  C   UNL     1     -30.791  -9.499  19.397  0.00  0.00    +0.057 A 
ATOM     19  C   UNL     1     -30.675 -10.725  20.053  0.00  0.00    +0.042 A 
ATOM     20  C   UNL     1     -30.651 -11.914  19.320  0.00  0.00    +0.087 A 
ATOM     21 CL   UNL     1     -30.483 -13.437  20.182  0.00  0.00    -0.080 Cl
ATOM     22  C   UNL     1     -30.738 -11.896  17.918  0.00  0.00    +0.181 A 
BRANCH  16  24
ATOM     23  C   UNL     1     -32.204 -10.230  15.160  0.00  0.00    +0.277 C 
ATOM     24  O   UNL     1     -31.023 -10.621  15.852  0.00  0.00    -0.491 OA
ENDBRANCH  16  24
BRANCH  18  25
ATOM     25  C   UNL     1     -30.811  -8.275  20.155  0.00  0.00    +0.099 C 
ATOM     26  N   UNL     1     -30.827  -7.292  20.764  0.00  0.00    -0.191 NA
ENDBRANCH  18  25
ENDBRANCH  15  22
ENDBRANCH   1  15
TORSDOF 8
ENDMDL
MODEL 6
REMARK VINA RESULT:    -4.035      3.081      6.479
REMARK INTER + INTRA:          -6.855
REMARK INTER:                  -5.648
REMARK INTRA:                  -1.207
REMARK UNBOUND:                -0.932
REMARK  Name = 
REMARK  9 active torsions:
REMARK  status: ('A' for Active; 'I' for Inactive)
REMARK    1  A    between atoms: C_1  and  O_2
REMARK    2  A    between atoms: O_2  and  C_3
REMARK    3  A    between atoms: C_5  and  C_6
REMARK    4  A    between atoms: C_11  and  O_12
REMARK    5  A    between atoms: O_12  and  C_13
REMARK    6  A    between atoms: C_13  and  C_14
REMARK    7  A    between atoms: C_18  and  O_20
REMARK    8  A    between atoms: O_20  and  C_21
REMARK    9  A    between atoms: C_21  and  C_22
REMARK                            x       y       z     vdW  Elec       q    Type
REMARK                         _______ _______ _______ _____ _____    ______ ____
ROOT
ATOM      1  C   UNL     1     -32.063  -8.686  18.312  0.00  0.00    +0.265 C 
ENDROOT
BRANCH   1   2
ATOM      2  C   UNL     1     -31.788  -9.806  19.284  0.00  0.00    -0.007 A 
ATOM      3  C   UNL     1     -32.850 -10.540  19.834  0.00  0.00    +0.007 A 
ATOM      4  C   UNL     1     -32.596 -11.568  20.745  0.00  0.00    +0.004 A 
ATOM      5  C   UNL     1     -31.285 -11.863  21.126  0.00  0.00    +0.045 A 
ATOM      6  C   UNL     1     -30.211 -11.121  20.598  0.00  0.00    +0.122 A 
ATOM      7  C   UNL     1     -30.472 -10.090  19.687  0.00  0.00    +0.052 A 
BRANCH   6   8
ATOM      8  O   UNL     1     -28.877 -11.375  20.949  0.00  0.00    -0.483 OA
BRANCH   8   9
ATOM      9  C   UNL     1     -28.320 -12.676  21.107  0.00  0.00    +0.324 C 
BRANCH   9  10
ATOM     10  C   UNL     1     -28.059 -13.264  19.758  0.00  0.00    +0.248 C 
ATOM     11  N   UNL     1     -29.022 -14.121  19.147  0.00  0.00    -0.327 N 
ATOM     12  O   UNL     1     -26.965 -13.037  19.176  0.00  0.00    -0.272 OA
ATOM     13  H   UNL     1     -28.832 -14.542  18.209  0.00  0.00    +0.145 HD
ATOM     14  H   UNL     1     -29.922 -14.340  19.626  0.00  0.00    +0.145 HD
ENDBRANCH   9  10
ENDBRANCH   8   9
ENDBRANCH   6   8
ENDBRANCH   1   2
BRANCH   1  15
ATOM     15  O   UNL     1     -31.582  -9.001  17.004  0.00  0.00    -0.482 OA
BRANCH  15  22
ATOM     16  C   UNL     1     -33.426  -9.414  15.375  0.00  0.00    +0.164 A 
ATOM     17  C   UNL     1     -33.998 -10.292  14.431  0.00  0.00    +0.068 A 
ATOM     18  C   UNL     1     -33.381 -11.506  14.118  0.00  0.00    +0.057 A 
ATOM     19  C   UNL     1     -32.183 -11.859  14.741  0.00  0.00    +0.042 A 
ATOM     20  C   UNL     1     -31.606 -11.005  15.685  0.00  0.00    +0.087 A 
ATOM     21 CL   UNL     1     -30.107 -11.493  16.463  0.00  0.00    -0.080 Cl
ATOM     22  C   UNL     1     -32.219  -9.787  16.024  0.00  0.00    +0.181 A 
BRANCH  16  24
ATOM     23  C   UNL     1     -34.983  -7.522  14.840  0.00  0.00    +0.277 C 
ATOM     24  O   UNL     1     -34.023  -8.177  15.662  0.00  0.00    -0.491 OA
ENDBRANCH  16  24
BRANCH  18  25
ATOM     25  C   UNL     1     -33.975 -12.390  13.149  0.00  0.00    +0.099 C 
ATOM     26  N   UNL     1     -34.453 -13.100  12.371  0.00  0.00    -0.191 NA
ENDBRANCH  18  25
ENDBRANCH  15  22
ENDBRANCH   1  15
TORSDOF 8
ENDMDL
MODEL 7
REMARK VINA RESULT:    -3.962      2.676      3.490
REMARK INTER + INTRA:          -6.747
REMARK INTER:                  -5.986
REMARK INTRA:                  -0.760
REMARK UNBOUND:                -0.932
REMARK  Name = 
REMARK  9 active torsions:
REMARK  status: ('A' for Active; 'I' for Inactive)
REMARK    1  A    between atoms: C_1  and  O_2
REMARK    2  A    between atoms: O_2  and  C_3
REMARK    3  A    between atoms: C_5  and  C_6
REMARK    4  A    between atoms: C_11  and  O_12
REMARK    5  A    between atoms: O_12  and  C_13
REMARK    6  A    between atoms: C_13  and  C_14
REMARK    7  A    between atoms: C_18  and  O_20
REMARK    8  A    between atoms: O_20  and  C_21
REMARK    9  A    between atoms: C_21  and  C_22
REMARK                            x       y       z     vdW  Elec       q    Type
REMARK                         _______ _______ _______ _____ _____    ______ ____
ROOT
ATOM      1  C   UNL     1     -30.024  -9.559  16.809  0.00  0.00    +0.265 C 
ENDROOT
BRANCH   1   2
ATOM      2  C   UNL     1     -31.136 -10.361  16.181  0.00  0.00    -0.007 A 
ATOM      3  C   UNL     1     -32.418  -9.806  16.046  0.00  0.00    +0.007 A 
ATOM      4  C   UNL     1     -33.451 -10.554  15.477  0.00  0.00    +0.004 A 
ATOM      5  C   UNL     1     -33.220 -11.864  15.052  0.00  0.00    +0.045 A 
ATOM      6  C   UNL     1     -31.944 -12.441  15.200  0.00  0.00    +0.122 A 
ATOM      7  C   UNL     1     -30.913 -11.687  15.773  0.00  0.00    +0.052 A 
BRANCH   6   8
ATOM      8  O   UNL     1     -31.660 -13.753  14.791  0.00  0.00    -0.483 OA
BRANCH   8   9
ATOM      9  C   UNL     1     -30.762 -14.629  15.465  0.00  0.00    +0.324 C 
BRANCH   9  10
ATOM     10  C   UNL     1     -31.141 -14.703  16.909  0.00  0.00    +0.248 C 
ATOM     11  N   UNL     1     -30.133 -14.726  17.919  0.00  0.00    -0.327 N 
ATOM     12  O   UNL     1     -32.354 -14.788  17.235  0.00  0.00    -0.272 OA
ATOM     13  H   UNL     1     -30.399 -14.791  18.927  0.00  0.00    +0.145 HD
ATOM     14  H   UNL     1     -29.122 -14.681  17.664  0.00  0.00    +0.145 HD
ENDBRANCH   9  10
ENDBRANCH   8   9
ENDBRANCH   6   8
ENDBRANCH   1   2
BRANCH   1  15
ATOM     15  O   UNL     1     -30.068  -9.635  18.235  0.00  0.00    -0.482 OA
BRANCH  15  22
ATOM     16  C   UNL     1     -30.577 -11.313  20.010  0.00  0.00    +0.164 A 
ATOM     17  C   UNL     1     -30.109 -12.389  20.792  0.00  0.00    +0.068 A 
ATOM     18  C   UNL     1     -28.819 -12.896  20.613  0.00  0.00    +0.057 A 
ATOM     19  C   UNL     1     -27.981 -12.336  19.648  0.00  0.00    +0.042 A 
ATOM     20  C   UNL     1     -28.424 -11.265  18.869  0.00  0.00    +0.087 A 
ATOM     21 CL   UNL     1     -27.331 -10.574  17.678  0.00  0.00    -0.080 Cl
ATOM     22  C   UNL     1     -29.713 -10.732  19.045  0.00  0.00    +0.181 A 
BRANCH  16  24
ATOM     23  C   UNL     1     -33.031 -11.345  19.492  0.00  0.00    +0.277 C 
ATOM     24  O   UNL     1     -31.885 -10.828  20.161  0.00  0.00    -0.491 OA
ENDBRANCH  16  24
BRANCH  18  25
ATOM     25  C   UNL     1     -28.357 -13.997  21.416  0.00  0.00    +0.099 C 
ATOM     26  N   UNL     1     -27.986 -14.883  22.062  0.00  0.00    -0.191 NA
ENDBRANCH  18  25
ENDBRANCH  15  22
ENDBRANCH   1  15
TORSDOF 8
ENDMDL
MODEL 8
REMARK VINA RESULT:    -3.871      2.770      7.388
REMARK INTER + INTRA:          -6.614
REMARK INTER:                  -5.476
REMARK INTRA:                  -1.138
REMARK UNBOUND:                -0.932
REMARK  Name = 
REMARK  9 active torsions:
REMARK  status: ('A' for Active; 'I' for Inactive)
REMARK    1  A    between atoms: C_1  and  O_2
REMARK    2  A    between atoms: O_2  and  C_3
REMARK    3  A    between atoms: C_5  and  C_6
REMARK    4  A    between atoms: C_11  and  O_12
REMARK    5  A    between atoms: O_12  and  C_13
REMARK    6  A    between atoms: C_13  and  C_14
REMARK    7  A    between atoms: C_18  and  O_20
REMARK    8  A    between atoms: O_20  and  C_21
REMARK    9  A    between atoms: C_21  and  C_22
REMARK                            x       y       z     vdW  Elec       q    Type
REMARK                         _______ _______ _______ _____ _____    ______ ____
ROOT
ATOM      1  C   UNL     1     -29.117 -13.398  17.162  0.00  0.00    +0.265 C 
ENDROOT
BRANCH   1   2
ATOM      2  C   UNL     1     -29.212 -12.588  18.431  0.00  0.00    -0.007 A 
ATOM      3  C   UNL     1     -29.092 -13.214  19.680  0.00  0.00    +0.007 A 
ATOM      4  C   UNL     1     -29.195 -12.466  20.855  0.00  0.00    +0.004 A 
ATOM      5  C   UNL     1     -29.431 -11.091  20.795  0.00  0.00    +0.045 A 
ATOM      6  C   UNL     1     -29.575 -10.451  19.549  0.00  0.00    +0.122 A 
ATOM      7  C   UNL     1     -29.474 -11.208  18.375  0.00  0.00    +0.052 A 
BRANCH   6   8
ATOM      8  O   UNL     1     -29.815  -9.074  19.433  0.00  0.00    -0.483 OA
BRANCH   8   9
ATOM      9  C   UNL     1     -30.866  -8.382  20.100  0.00  0.00    +0.324 C 
BRANCH   9  10
ATOM     10  C   UNL     1     -32.051  -8.299  19.193  0.00  0.00    +0.248 C 
ATOM     11  N   UNL     1     -31.904  -8.521  17.791  0.00  0.00    -0.327 N 
ATOM     12  O   UNL     1     -33.179  -7.988  19.661  0.00  0.00    -0.272 OA
ATOM     13  H   UNL     1     -32.731  -8.450  17.157  0.00  0.00    +0.145 HD
ATOM     14  H   UNL     1     -30.972  -8.755  17.384  0.00  0.00    +0.145 HD
ENDBRANCH   9  10
ENDBRANCH   8   9
ENDBRANCH   6   8
ENDBRANCH   1   2
BRANCH   1  15
ATOM     15  O   UNL     1     -30.396 -13.895  16.765  0.00  0.00    -0.482 OA
BRANCH  15  22
ATOM     16  C   UNL     1     -30.915 -13.615  14.340  0.00  0.00    +0.164 A 
ATOM     17  C   UNL     1     -31.781 -13.071  13.369  0.00  0.00    +0.068 A 
ATOM     18  C   UNL     1     -32.928 -12.367  13.748  0.00  0.00    +0.057 A 
ATOM     19  C   UNL     1     -33.226 -12.200  15.101  0.00  0.00    +0.042 A 
ATOM     20  C   UNL     1     -32.376 -12.726  16.077  0.00  0.00    +0.087 A 
ATOM     21 CL   UNL     1     -32.775 -12.477  17.771  0.00  0.00    -0.080 Cl
ATOM     22  C   UNL     1     -31.210 -13.423  15.716  0.00  0.00    +0.181 A 
BRANCH  16  24
ATOM     23  C   UNL     1     -29.574 -14.928  12.676  0.00  0.00    +0.277 C 
ATOM     24  O   UNL     1     -29.784 -14.355  13.963  0.00  0.00    -0.491 OA
ENDBRANCH  16  24
BRANCH  18  25
ATOM     25  C   UNL     1     -33.804 -11.821  12.745  0.00  0.00    +0.099 C 
ATOM     26  N   UNL     1     -34.509 -11.382  11.939  0.00  0.00    -0.191 NA
ENDBRANCH  18  25
ENDBRANCH  15  22
ENDBRANCH   1  15
TORSDOF 8
ENDMDL
MODEL 9
REMARK VINA RESULT:    -3.862      2.493      3.427
REMARK INTER + INTRA:          -6.600
REMARK INTER:                  -5.718
REMARK INTRA:                  -0.882
REMARK UNBOUND:                -0.932
REMARK  Name = 
REMARK  9 active torsions:
REMARK  status: ('A' for Active; 'I' for Inactive)
REMARK    1  A    between atoms: C_1  and  O_2
REMARK    2  A    between atoms: O_2  and  C_3
REMARK    3  A    between atoms: C_5  and  C_6
REMARK    4  A    between atoms: C_11  and  O_12
REMARK    5  A    between atoms: O_12  and  C_13
REMARK    6  A    between atoms: C_13  and  C_14
REMARK    7  A    between atoms: C_18  and  O_20
REMARK    8  A    between atoms: O_20  and  C_21
REMARK    9  A    between atoms: C_21  and  C_22
REMARK                            x       y       z     vdW  Elec       q    Type
REMARK                         _______ _______ _______ _____ _____    ______ ____
ROOT
ATOM      1  C   UNL     1     -33.787 -11.424  15.884  0.00  0.00    +0.265 C 
ENDROOT
BRANCH   1   2
ATOM      2  C   UNL     1     -33.453 -11.929  14.502  0.00  0.00    -0.007 A 
ATOM      3  C   UNL     1     -34.288 -11.622  13.417  0.00  0.00    +0.007 A 
ATOM      4  C   UNL     1     -33.986 -12.102  12.141  0.00  0.00    +0.004 A 
ATOM      5  C   UNL     1     -32.859 -12.902  11.938  0.00  0.00    +0.045 A 
ATOM      6  C   UNL     1     -32.024 -13.236  13.021  0.00  0.00    +0.122 A 
ATOM      7  C   UNL     1     -32.334 -12.754  14.298  0.00  0.00    +0.052 A 
BRANCH   6   8
ATOM      8  O   UNL     1     -30.882 -14.037  12.872  0.00  0.00    -0.483 OA
BRANCH   8   9
ATOM      9  C   UNL     1     -29.981 -14.357  13.926  0.00  0.00    +0.324 C 
BRANCH   9  10
ATOM     10  C   UNL     1     -28.676 -14.791  13.342  0.00  0.00    +0.248 C 
ATOM     11  N   UNL     1     -28.552 -15.011  11.938  0.00  0.00    -0.327 N 
ATOM     12  O   UNL     1     -27.691 -15.005  14.097  0.00  0.00    -0.272 OA
ATOM     13  H   UNL     1     -27.642 -15.326  11.532  0.00  0.00    +0.145 HD
ATOM     14  H   UNL     1     -29.365 -14.862  11.301  0.00  0.00    +0.145 HD
ENDBRANCH   9  10
ENDBRANCH   8   9
ENDBRANCH   6   8
ENDBRANCH   1   2
BRANCH   1  15
ATOM     15  O   UNL     1     -33.372 -10.069  16.058  0.00  0.00    -0.482 OA
BRANCH  15  22
ATOM     16  C   UNL     1     -31.363  -9.869  17.524  0.00  0.00    +0.164 A 
ATOM     17  C   UNL     1     -30.784  -9.281  18.668  0.00  0.00    +0.068 A 
ATOM     18  C   UNL     1     -31.495  -8.349  19.429  0.00  0.00    +0.057 A 
ATOM     19  C   UNL     1     -32.790  -7.989  19.056  0.00  0.00    +0.042 A 
ATOM     20  C   UNL     1     -33.382  -8.567  17.930  0.00  0.00    +0.087 A 
ATOM     21 CL   UNL     1     -35.024  -8.103  17.504  0.00  0.00    -0.080 Cl
ATOM     22  C   UNL     1     -32.690  -9.517  17.161  0.00  0.00    +0.181 A 
BRANCH  16  24
ATOM     23  C   UNL     1     -29.935 -11.911  17.232  0.00  0.00    +0.277 C 
ATOM     24  O   UNL     1     -30.638 -10.776  16.736  0.00  0.00    -0.491 OA
ENDBRANCH  16  24
BRANCH  18  25
ATOM     25  C   UNL     1     -30.890  -7.754  20.592  0.00  0.00    +0.099 C 
ATOM     26  N   UNL     1     -30.403  -7.276  21.527  0.00  0.00    -0.191 NA
ENDBRANCH  18  25
ENDBRANCH  15  22
ENDBRANCH   1  15
TORSDOF 8
ENDMDL
