MODEL 1
REMARK VINA RESULT:    -3.563      0.000      0.000
REMARK INTER + INTRA:          -5.068
REMARK INTER:                  -4.397
REMARK INTRA:                  -0.671
REMARK UNBOUND:                -0.671
REMARK  Name = 
REMARK  6 active torsions:
REMARK  status: ('A' for Active; 'I' for Inactive)
REMARK    1  A    between atoms: C_1  and  C_2
REMARK    2  A    between atoms: C_2  and  C_3
REMARK    3  A    between atoms: C_3  and  C_4
REMARK    4  A    between atoms: C_3  and  N_6
REMARK    5  A    between atoms: C_4  and  C_5
REMARK    6  A    between atoms: C_10  and  N_14
REMARK                            x       y       z     vdW  Elec       q    Type
REMARK                         _______ _______ _______ _____ _____    ______ ____
ROOT
ATOM      1  N   UNL     1     -30.659 -11.824  17.713  0.00  0.00    -0.311 N 
ATOM      2  C   UNL     1     -29.476 -12.205  18.427  0.00  0.00    +0.217 A 
ATOM      3  N   UNL     1     -28.255 -11.758  18.036  0.00  0.00    -0.221 NA
ATOM      4  C   UNL     1     -27.129 -12.113  18.704  0.00  0.00    +0.150 A 
ATOM      5  C   UNL     1     -27.207 -12.945  19.829  0.00  0.00    +0.184 A 
ATOM      6  C   UNL     1     -28.481 -13.423  20.206  0.00  0.00    +0.152 A 
ATOM      7  N   UNL     1     -28.653 -14.356  21.277  0.00  0.00    -0.341 N 
ATOM      8  N   UNL     1     -29.576 -13.033  19.499  0.00  0.00    -0.198 NA
ATOM      9  H   UNL     1     -31.578 -12.176  18.065  0.00  0.00    +0.149 HD
ATOM     10  H   UNL     1     -29.616 -14.627  21.578  0.00  0.00    +0.144 HD
ATOM     11  H   UNL     1     -27.852 -14.874  21.697  0.00  0.00    +0.144 HD
ENDROOT
BRANCH   5  12
ATOM     12  N   UNL     1     -26.015 -13.259  20.567  0.00  0.00    +0.061 N 
ATOM     13  O   UNL     1     -26.098 -13.566  21.906  0.00  0.00    -0.126 OA
ATOM     14  O   UNL     1     -24.939 -13.465  19.969  0.00  0.00    -0.126 OA
ENDBRANCH   5  12
BRANCH   1  15
ATOM     15  C   UNL     1     -30.620 -10.937  16.543  0.00  0.00    +0.073 C 
BRANCH  15  17
ATOM     16  C   UNL     1     -31.078 -12.846  14.901  0.00  0.00    +0.006 C 
ATOM     17  C   UNL     1     -31.554 -11.495  15.434  0.00  0.00    +0.019 C 
ENDBRANCH  15  17
BRANCH  15  18
ATOM     18  C   UNL     1     -31.014  -9.504  16.973  0.00  0.00    +0.019 C 
ATOM     19  C   UNL     1     -32.488  -9.373  17.350  0.00  0.00    +0.006 C 
ENDBRANCH  15  18
ENDBRANCH   1  15
TORSDOF 4
ENDMDL
MODEL 2
REMARK VINA RESULT:    -3.557      1.756      2.158
REMARK INTER + INTRA:          -5.060
REMARK INTER:                  -4.452
REMARK INTRA:                  -0.608
REMARK UNBOUND:                -0.671
REMARK  Name = 
REMARK  6 active torsions:
REMARK  status: ('A' for Active; 'I' for Inactive)
REMARK    1  A    between atoms: C_1  and  C_2
REMARK    2  A    between atoms: C_2  and  C_3
REMARK    3  A    between atoms: C_3  and  C_4
REMARK    4  A    between atoms: C_3  and  N_6
REMARK    5  A    between atoms: C_4  and  C_5
REMARK    6  A    between atoms: C_10  and  N_14
REMARK                            x       y       z     vdW  Elec       q    Type
REMARK                         _______ _______ _______ _____ _____    ______ ____
ROOT
ATOM      1  N   UNL     1     -31.265 -13.125  19.855  0.00  0.00    -0.311 N 
ATOM      2  C   UNL     1     -29.834 -13.128  19.937  0.00  0.00    +0.217 A 
ATOM      3  N   UNL     1     -29.090 -12.363  19.096  0.00  0.00    -0.221 NA
ATOM      4  C   UNL     1     -27.735 -12.359  19.165  0.00  0.00    +0.150 A 
ATOM      5  C   UNL     1     -27.072 -13.140  20.121  0.00  0.00    +0.184 A 
ATOM      6  C   UNL     1     -27.860 -13.949  20.969  0.00  0.00    +0.152 A 
ATOM      7  N   UNL     1     -27.274 -14.855  21.909  0.00  0.00    -0.341 N 
ATOM      8  N   UNL     1     -29.215 -13.913  20.856  0.00  0.00    -0.198 NA
ATOM      9  H   UNL     1     -31.795 -13.714  20.537  0.00  0.00    +0.149 HD
ATOM     10  H   UNL     1     -27.886 -15.380  22.571  0.00  0.00    +0.144 HD
ATOM     11  H   UNL     1     -26.263 -15.108  21.881  0.00  0.00    +0.144 HD
ENDROOT
BRANCH   5  12
ATOM     12  N   UNL     1     -25.641 -13.074  20.227  0.00  0.00    +0.061 N 
ATOM     13  O   UNL     1     -24.938 -12.174  19.460  0.00  0.00    -0.126 OA
ATOM     14  O   UNL     1     -25.049 -13.667  21.153  0.00  0.00    -0.126 OA
ENDBRANCH   5  12
BRANCH   1  15
ATOM     15  C   UNL     1     -31.996 -12.304  18.881  0.00  0.00    +0.073 C 
BRANCH  15  17
ATOM     16  C   UNL     1     -32.276 -12.486  16.343  0.00  0.00    +0.006 C 
ATOM     17  C   UNL     1     -32.451 -13.190  17.689  0.00  0.00    +0.019 C 
ENDBRANCH  15  17
BRANCH  15  18
ATOM     18  C   UNL     1     -33.188 -11.614  19.585  0.00  0.00    +0.019 C 
ATOM     19  C   UNL     1     -33.011 -10.103  19.723  0.00  0.00    +0.006 C 
ENDBRANCH  15  18
ENDBRANCH   1  15
TORSDOF 4
ENDMDL
MODEL 3
REMARK VINA RESULT:    -3.499      2.478      3.388
REMARK INTER + INTRA:          -4.988
REMARK INTER:                  -4.372
REMARK INTRA:                  -0.617
REMARK UNBOUND:                -0.671
REMARK  Name = 
REMARK  6 active torsions:
REMARK  status: ('A' for Active; 'I' for Inactive)
REMARK    1  A    between atoms: C_1  and  C_2
REMARK    2  A    between atoms: C_2  and  C_3
REMARK    3  A    between atoms: C_3  and  C_4
REMARK    4  A    between atoms: C_3  and  N_6
REMARK    5  A    between atoms: C_4  and  C_5
REMARK    6  A    between atoms: C_10  and  N_14
REMARK                            x       y       z     vdW  Elec       q    Type
REMARK                         _______ _______ _______ _____ _____    ______ ____
ROOT
ATOM      1  N   UNL     1     -31.852 -12.829  14.907  0.00  0.00    -0.311 N 
ATOM      2  C   UNL     1     -31.032 -12.417  16.009  0.00  0.00    +0.217 A 
ATOM      3  N   UNL     1     -30.750 -11.104  16.210  0.00  0.00    -0.221 NA
ATOM      4  C   UNL     1     -29.976 -10.703  17.249  0.00  0.00    +0.150 A 
ATOM      5  C   UNL     1     -29.458 -11.643  18.150  0.00  0.00    +0.184 A 
ATOM      6  C   UNL     1     -29.738 -13.006  17.910  0.00  0.00    +0.152 A 
ATOM      7  N   UNL     1     -29.175 -14.048  18.713  0.00  0.00    -0.341 N 
ATOM      8  N   UNL     1     -30.522 -13.351  16.853  0.00  0.00    -0.198 NA
ATOM      9  H   UNL     1     -32.059 -13.849  14.806  0.00  0.00    +0.149 HD
ATOM     10  H   UNL     1     -29.465 -15.038  18.555  0.00  0.00    +0.144 HD
ATOM     11  H   UNL     1     -28.389 -13.874  19.376  0.00  0.00    +0.144 HD
ENDROOT
BRANCH   5  12
ATOM     12  N   UNL     1     -28.695 -11.199  19.283  0.00  0.00    +0.061 N 
ATOM     13  O   UNL     1     -29.310 -10.484  20.285  0.00  0.00    -0.126 OA
ATOM     14  O   UNL     1     -27.541 -11.633  19.476  0.00  0.00    -0.126 OA
ENDBRANCH   5  12
BRANCH   1  15
ATOM     15  C   UNL     1     -32.430 -11.873  13.955  0.00  0.00    +0.073 C 
BRANCH  15  17
ATOM     16  C   UNL     1     -33.724 -12.773  11.938  0.00  0.00    +0.006 C 
ATOM     17  C   UNL     1     -32.346 -12.453  12.516  0.00  0.00    +0.019 C 
ENDBRANCH  15  17
BRANCH  15  18
ATOM     18  C   UNL     1     -33.884 -11.550  14.371  0.00  0.00    +0.019 C 
ATOM     19  C   UNL     1     -34.078 -10.095  14.798  0.00  0.00    +0.006 C 
ENDBRANCH  15  18
ENDBRANCH   1  15
TORSDOF 4
ENDMDL
MODEL 4
REMARK VINA RESULT:    -3.493      2.582      4.101
REMARK INTER + INTRA:          -4.981
REMARK INTER:                  -4.463
REMARK INTRA:                  -0.518
REMARK UNBOUND:                -0.671
REMARK  Name = 
REMARK  6 active torsions:
REMARK  status: ('A' for Active; 'I' for Inactive)
REMARK    1  A    between atoms: C_1  and  C_2
REMARK    2  A    between atoms: C_2  and  C_3
REMARK    3  A    between atoms: C_3  and  C_4
REMARK    4  A    between atoms: C_3  and  N_6
REMARK    5  A    between atoms: C_4  and  C_5
REMARK    6  A    between atoms: C_10  and  N_14
REMARK                            x       y       z     vdW  Elec       q    Type
REMARK                         _______ _______ _______ _____ _____    ______ ____
ROOT
ATOM      1  N   UNL     1     -29.101 -13.958  15.297  0.00  0.00    -0.311 N 
ATOM      2  C   UNL     1     -29.281 -13.689  16.693  0.00  0.00    +0.217 A 
ATOM      3  N   UNL     1     -30.493 -13.863  17.283  0.00  0.00    -0.221 NA
ATOM      4  C   UNL     1     -30.673 -13.612  18.603  0.00  0.00    +0.150 A 
ATOM      5  C   UNL     1     -29.601 -13.177  19.394  0.00  0.00    +0.184 A 
ATOM      6  C   UNL     1     -28.356 -12.976  18.760  0.00  0.00    +0.152 A 
ATOM      7  N   UNL     1     -27.228 -12.441  19.459  0.00  0.00    -0.341 N 
ATOM      8  N   UNL     1     -28.232 -13.245  17.433  0.00  0.00    -0.198 NA
ATOM      9  H   UNL     1     -28.145 -13.830  14.893  0.00  0.00    +0.149 HD
ATOM     10  H   UNL     1     -26.303 -12.378  18.979  0.00  0.00    +0.144 HD
ATOM     11  H   UNL     1     -27.316 -11.994  20.397  0.00  0.00    +0.144 HD
ENDROOT
BRANCH   5  12
ATOM     12  N   UNL     1     -29.791 -12.980  20.805  0.00  0.00    +0.061 N 
ATOM     13  O   UNL     1     -28.779 -13.294  21.683  0.00  0.00    -0.126 OA
ATOM     14  O   UNL     1     -30.772 -12.331  21.225  0.00  0.00    -0.126 OA
ENDBRANCH   5  12
BRANCH   1  15
ATOM     15  C   UNL     1     -30.195 -14.434  14.440  0.00  0.00    +0.073 C 
BRANCH  15  17
ATOM     16  C   UNL     1     -31.564 -13.214  12.654  0.00  0.00    +0.006 C 
ATOM     17  C   UNL     1     -31.164 -13.261  14.129  0.00  0.00    +0.019 C 
ENDBRANCH  15  17
BRANCH  15  18
ATOM     18  C   UNL     1     -29.603 -15.061  13.156  0.00  0.00    +0.019 C 
ATOM     19  C   UNL     1     -28.076 -15.062  13.136  0.00  0.00    +0.006 C 
ENDBRANCH  15  18
ENDBRANCH   1  15
TORSDOF 4
ENDMDL
MODEL 5
REMARK VINA RESULT:    -3.479      2.754      3.873
REMARK INTER + INTRA:          -4.963
REMARK INTER:                  -4.315
REMARK INTRA:                  -0.648
REMARK UNBOUND:                -0.671
REMARK  Name = 
REMARK  6 active torsions:
REMARK  status: ('A' for Active; 'I' for Inactive)
REMARK    1  A    between atoms: C_1  and  C_2
REMARK    2  A    between atoms: C_2  and  C_3
REMARK    3  A    between atoms: C_3  and  C_4
REMARK    4  A    between atoms: C_3  and  N_6
REMARK    5  A    between atoms: C_4  and  C_5
REMARK    6  A    between atoms: C_10  and  N_14
REMARK                            x       y       z     vdW  Elec       q    Type
REMARK                         _______ _______ _______ _____ _____    ______ ____
ROOT
ATOM      1  N   UNL     1     -31.167 -13.972  15.325  0.00  0.00    -0.311 N 
ATOM      2  C   UNL     1     -30.750 -13.295  16.517  0.00  0.00    +0.217 A 
ATOM      3  N   UNL     1     -30.125 -12.091  16.449  0.00  0.00    -0.221 NA
ATOM      4  C   UNL     1     -29.727 -11.442  17.571  0.00  0.00    +0.150 A 
ATOM      5  C   UNL     1     -29.964 -12.001  18.834  0.00  0.00    +0.184 A 
ATOM      6  C   UNL     1     -30.589 -13.266  18.886  0.00  0.00    +0.152 A 
ATOM      7  N   UNL     1     -30.785 -13.963  20.120  0.00  0.00    -0.341 N 
ATOM      8  N   UNL     1     -30.969 -13.870  17.728  0.00  0.00    -0.198 NA
ATOM      9  H   UNL     1     -31.662 -14.887  15.429  0.00  0.00    +0.149 HD
ATOM     10  H   UNL     1     -31.319 -14.860  20.128  0.00  0.00    +0.144 HD
ATOM     11  H   UNL     1     -30.310 -13.675  21.002  0.00  0.00    +0.144 HD
ENDROOT
BRANCH   5  12
ATOM     12  N   UNL     1     -29.596 -11.271  20.016  0.00  0.00    +0.061 N 
ATOM     13  O   UNL     1     -29.735  -9.903  20.048  0.00  0.00    -0.126 OA
ATOM     14  O   UNL     1     -29.358 -11.877  21.082  0.00  0.00    -0.126 OA
ENDBRANCH   5  12
BRANCH   1  15
ATOM     15  C   UNL     1     -30.955 -13.409  13.985  0.00  0.00    +0.073 C 
BRANCH  15  17
ATOM     16  C   UNL     1     -28.819 -14.723  13.469  0.00  0.00    +0.006 C 
ATOM     17  C   UNL     1     -30.274 -14.469  13.075  0.00  0.00    +0.019 C 
ENDBRANCH  15  17
BRANCH  15  18
ATOM     18  C   UNL     1     -32.309 -12.929  13.411  0.00  0.00    +0.019 C 
ATOM     19  C   UNL     1     -32.526 -13.344  11.957  0.00  0.00    +0.006 C 
ENDBRANCH  15  18
ENDBRANCH   1  15
TORSDOF 4
ENDMDL
MODEL 6
REMARK VINA RESULT:    -3.365      1.965      2.765
REMARK INTER + INTRA:          -4.823
REMARK INTER:                  -4.245
REMARK INTRA:                  -0.578
REMARK UNBOUND:                -0.671
REMARK  Name = 
REMARK  6 active torsions:
REMARK  status: ('A' for Active; 'I' for Inactive)
REMARK    1  A    between atoms: C_1  and  C_2
REMARK    2  A    between atoms: C_2  and  C_3
REMARK    3  A    between atoms: C_3  and  C_4
REMARK    4  A    between atoms: C_3  and  N_6
REMARK    5  A    between atoms: C_4  and  C_5
REMARK    6  A    between atoms: C_10  and  N_14
REMARK                            x       y       z     vdW  Elec       q    Type
REMARK                         _______ _______ _______ _____ _____    ______ ____
ROOT
ATOM      1  N   UNL     1     -32.443 -10.800  17.401  0.00  0.00    -0.311 N 
ATOM      2  C   UNL     1     -31.098 -11.148  17.754  0.00  0.00    +0.217 A 
ATOM      3  N   UNL     1     -30.105 -10.223  17.698  0.00  0.00    -0.221 NA
ATOM      4  C   UNL     1     -28.829 -10.543  18.030  0.00  0.00    +0.150 A 
ATOM      5  C   UNL     1     -28.511 -11.840  18.454  0.00  0.00    +0.184 A 
ATOM      6  C   UNL     1     -29.550 -12.796  18.480  0.00  0.00    +0.152 A 
ATOM      7  N   UNL     1     -29.308 -14.168  18.802  0.00  0.00    -0.341 N 
ATOM      8  N   UNL     1     -30.812 -12.419  18.138  0.00  0.00    -0.198 NA
ATOM      9  H   UNL     1     -33.177 -11.540  17.480  0.00  0.00    +0.149 HD
ATOM     10  H   UNL     1     -30.112 -14.829  18.887  0.00  0.00    +0.144 HD
ATOM     11  H   UNL     1     -28.347 -14.570  18.838  0.00  0.00    +0.144 HD
ENDROOT
BRANCH   5  12
ATOM     12  N   UNL     1     -27.170 -12.146  18.867  0.00  0.00    +0.061 N 
ATOM     13  O   UNL     1     -26.857 -13.416  19.294  0.00  0.00    -0.126 OA
ATOM     14  O   UNL     1     -26.242 -11.341  18.642  0.00  0.00    -0.126 OA
ENDBRANCH   5  12
BRANCH   1  15
ATOM     15  C   UNL     1     -32.819  -9.446  16.973  0.00  0.00    +0.073 C 
BRANCH  15  17
ATOM     16  C   UNL     1     -34.515  -8.328  15.415  0.00  0.00    +0.006 C 
ATOM     17  C   UNL     1     -33.579  -9.519  15.620  0.00  0.00    +0.019 C 
ENDBRANCH  15  17
BRANCH  15  18
ATOM     18  C   UNL     1     -33.662  -8.774  18.081  0.00  0.00    +0.019 C 
ATOM     19  C   UNL     1     -32.825  -7.938  19.048  0.00  0.00    +0.006 C 
ENDBRANCH  15  18
ENDBRANCH   1  15
TORSDOF 4
ENDMDL
MODEL 7
REMARK VINA RESULT:    -3.284      4.484      5.573
REMARK INTER + INTRA:          -4.723
REMARK INTER:                  -4.140
REMARK INTRA:                  -0.582
REMARK UNBOUND:                -0.671
REMARK  Name = 
REMARK  6 active torsions:
REMARK  status: ('A' for Active; 'I' for Inactive)
REMARK    1  A    between atoms: C_1  and  C_2
REMARK    2  A    between atoms: C_2  and  C_3
REMARK    3  A    between atoms: C_3  and  C_4
REMARK    4  A    between atoms: C_3  and  N_6
REMARK    5  A    between atoms: C_4  and  C_5
REMARK    6  A    between atoms: C_10  and  N_14
REMARK                            x       y       z     vdW  Elec       q    Type
REMARK                         _______ _______ _______ _____ _____    ______ ____
ROOT
ATOM      1  N   UNL     1     -32.617 -12.252  14.469  0.00  0.00    -0.311 N 
ATOM      2  C   UNL     1     -32.227 -11.373  15.532  0.00  0.00    +0.217 A 
ATOM      3  N   UNL     1     -30.962 -10.881  15.595  0.00  0.00    -0.221 NA
ATOM      4  C   UNL     1     -30.582 -10.048  16.596  0.00  0.00    +0.150 A 
ATOM      5  C   UNL     1     -31.499  -9.666  17.585  0.00  0.00    +0.184 A 
ATOM      6  C   UNL     1     -32.801 -10.207  17.518  0.00  0.00    +0.152 A 
ATOM      7  N   UNL     1     -33.778  -9.957  18.534  0.00  0.00    -0.341 N 
ATOM      8  N   UNL     1     -33.127 -11.037  16.491  0.00  0.00    -0.198 NA
ATOM      9  H   UNL     1     -33.608 -12.588  14.451  0.00  0.00    +0.149 HD
ATOM     10  H   UNL     1     -34.753 -10.310  18.412  0.00  0.00    +0.144 HD
ATOM     11  H   UNL     1     -33.527  -9.537  19.454  0.00  0.00    +0.144 HD
ENDROOT
BRANCH   5  12
ATOM     12  N   UNL     1     -31.102  -8.730  18.600  0.00  0.00    +0.061 N 
ATOM     13  O   UNL     1     -31.987  -7.768  19.030  0.00  0.00    -0.126 OA
ATOM     14  O   UNL     1     -30.049  -8.911  19.247  0.00  0.00    -0.126 OA
ENDBRANCH   5  12
BRANCH   1  15
ATOM     15  C   UNL     1     -31.692 -12.659  13.404  0.00  0.00    +0.073 C 
BRANCH  15  17
ATOM     16  C   UNL     1     -29.963 -14.438  12.771  0.00  0.00    +0.006 C 
ATOM     17  C   UNL     1     -30.839 -13.865  13.885  0.00  0.00    +0.019 C 
ENDBRANCH  15  17
BRANCH  15  18
ATOM     18  C   UNL     1     -32.496 -12.985  12.123  0.00  0.00    +0.019 C 
ATOM     19  C   UNL     1     -33.978 -12.634  12.239  0.00  0.00    +0.006 C 
ENDBRANCH  15  18
ENDBRANCH   1  15
TORSDOF 4
ENDMDL
MODEL 8
REMARK VINA RESULT:    -3.280      4.974      6.109
REMARK INTER + INTRA:          -4.718
REMARK INTER:                  -4.052
REMARK INTRA:                  -0.666
REMARK UNBOUND:                -0.671
REMARK  Name = 
REMARK  6 active torsions:
REMARK  status: ('A' for Active; 'I' for Inactive)
REMARK    1  A    between atoms: C_1  and  C_2
REMARK    2  A    between atoms: C_2  and  C_3
REMARK    3  A    between atoms: C_3  and  C_4
REMARK    4  A    between atoms: C_3  and  N_6
REMARK    5  A    between atoms: C_4  and  C_5
REMARK    6  A    between atoms: C_10  and  N_14
REMARK                            x       y       z     vdW  Elec       q    Type
REMARK                         _______ _______ _______ _____ _____    ______ ____
ROOT
ATOM      1  N   UNL     1     -31.671 -12.004  13.917  0.00  0.00    -0.311 N 
ATOM      2  C   UNL     1     -32.081 -11.679  15.251  0.00  0.00    +0.217 A 
ATOM      3  N   UNL     1     -32.550 -12.642  16.086  0.00  0.00    -0.221 NA
ATOM      4  C   UNL     1     -32.941 -12.345  17.351  0.00  0.00    +0.150 A 
ATOM      5  C   UNL     1     -32.856 -11.029  17.827  0.00  0.00    +0.184 A 
ATOM      6  C   UNL     1     -32.392 -10.036  16.937  0.00  0.00    +0.152 A 
ATOM      7  N   UNL     1     -32.363  -8.652  17.296  0.00  0.00    -0.341 N 
ATOM      8  N   UNL     1     -32.012 -10.392  15.680  0.00  0.00    -0.198 NA
ATOM      9  H   UNL     1     -31.297 -11.233  13.318  0.00  0.00    +0.149 HD
ATOM     10  H   UNL     1     -31.942  -7.956  16.641  0.00  0.00    +0.144 HD
ATOM     11  H   UNL     1     -32.856  -8.285  18.138  0.00  0.00    +0.144 HD
ENDROOT
BRANCH   5  12
ATOM     12  N   UNL     1     -33.210 -10.741  19.190  0.00  0.00    +0.061 N 
ATOM     13  O   UNL     1     -33.905  -9.592  19.489  0.00  0.00    -0.126 OA
ATOM     14  O   UNL     1     -33.085 -11.616  20.072  0.00  0.00    -0.126 OA
ENDBRANCH   5  12
BRANCH   1  15
ATOM     15  C   UNL     1     -31.725 -13.373  13.388  0.00  0.00    +0.073 C 
BRANCH  15  17
ATOM     16  C   UNL     1     -33.745 -12.746  11.946  0.00  0.00    +0.006 C 
ATOM     17  C   UNL     1     -32.345 -13.359  11.964  0.00  0.00    +0.019 C 
ENDBRANCH  15  17
BRANCH  15  18
ATOM     18  C   UNL     1     -30.304 -13.985  13.402  0.00  0.00    +0.019 C 
ATOM     19  C   UNL     1     -30.066 -14.924  14.583  0.00  0.00    +0.006 C 
ENDBRANCH  15  18
ENDBRANCH   1  15
TORSDOF 4
ENDMDL
MODEL 9
REMARK VINA RESULT:    -3.274      1.541      3.122
REMARK INTER + INTRA:          -4.711
REMARK INTER:                  -4.131
REMARK INTRA:                  -0.580
REMARK UNBOUND:                -0.671
REMARK  Name = 
REMARK  6 active torsions:
REMARK  status: ('A' for Active; 'I' for Inactive)
REMARK    1  A    between atoms: C_1  and  C_2
REMARK    2  A    between atoms: C_2  and  C_3
REMARK    3  A    between atoms: C_3  and  C_4
REMARK    4  A    between atoms: C_3  and  N_6
REMARK    5  A    between atoms: C_4  and  C_5
REMARK    6  A    between atoms: C_10  and  N_14
REMARK                            x       y       z     vdW  Elec       q    Type
REMARK                         _______ _______ _______ _____ _____    ______ ____
ROOT
ATOM      1  N   UNL     1     -30.438  -9.616  17.464  0.00  0.00    -0.311 N 
ATOM      2  C   UNL     1     -29.541 -10.551  18.078  0.00  0.00    +0.217 A 
ATOM      3  N   UNL     1     -30.003 -11.487  18.947  0.00  0.00    -0.221 NA
ATOM      4  C   UNL     1     -29.163 -12.376  19.534  0.00  0.00    +0.150 A 
ATOM      5  C   UNL     1     -27.793 -12.353  19.243  0.00  0.00    +0.184 A 
ATOM      6  C   UNL     1     -27.325 -11.356  18.359  0.00  0.00    +0.152 A 
ATOM      7  N   UNL     1     -25.933 -11.187  18.077  0.00  0.00    -0.341 N 
ATOM      8  N   UNL     1     -28.213 -10.491  17.799  0.00  0.00    -0.198 NA
ATOM      9  H   UNL     1     -30.038  -8.928  16.786  0.00  0.00    +0.149 HD
ATOM     10  H   UNL     1     -25.631 -10.491  17.360  0.00  0.00    +0.144 HD
ATOM     11  H   UNL     1     -25.190 -11.647  18.646  0.00  0.00    +0.144 HD
ENDROOT
BRANCH   5  12
ATOM     12  N   UNL     1     -26.925 -13.342  19.820  0.00  0.00    +0.061 N 
ATOM     13  O   UNL     1     -25.564 -13.139  19.830  0.00  0.00    -0.126 OA
ATOM     14  O   UNL     1     -27.399 -14.277  20.499  0.00  0.00    -0.126 OA
ENDBRANCH   5  12
BRANCH   1  15
ATOM     15  C   UNL     1     -31.883  -9.622  17.727  0.00  0.00    +0.073 C 
BRANCH  15  17
ATOM     16  C   UNL     1     -33.683  -8.028  18.604  0.00  0.00    +0.006 C 
ATOM     17  C   UNL     1     -32.234  -8.496  18.737  0.00  0.00    +0.019 C 
ENDBRANCH  15  17
BRANCH  15  18
ATOM     18  C   UNL     1     -32.648  -9.470  16.392  0.00  0.00    +0.019 C 
ATOM     19  C   UNL     1     -32.255 -10.519  15.352  0.00  0.00    +0.006 C 
ENDBRANCH  15  18
ENDBRANCH   1  15
TORSDOF 4
ENDMDL
