MODEL 1
REMARK VINA RESULT:    -5.255      0.000      0.000
REMARK INTER + INTRA:          -6.995
REMARK INTER:                  -6.637
REMARK INTRA:                  -0.358
REMARK UNBOUND:                -0.358
REMARK  Name = 
REMARK  5 active torsions:
REMARK  status: ('A' for Active; 'I' for Inactive)
REMARK    1  A    between atoms: C_2  and  C_4
REMARK    2  A    between atoms: C_4  and  O_5
REMARK    3  A    between atoms: C_4  and  C_6
REMARK    4  A    between atoms: N_9  and  C_10
REMARK    5  A    between atoms: C_10  and  C_11
REMARK                            x       y       z     vdW  Elec       q    Type
REMARK                         _______ _______ _______ _____ _____    ______ ____
ROOT
ATOM      1  C   UNL     1     -28.609 -13.486  20.174  0.00  0.00    +0.029 C 
ATOM      2  C   UNL     1     -30.071 -13.082  20.426  0.00  0.00    +0.022 C 
ATOM      3  C   UNL     1     -30.804 -12.815  19.095  0.00  0.00    +0.085 C 
ATOM      4  N   UNL     1     -29.975 -12.119  18.072  0.00  0.00    -0.298 NA
ATOM      5  C   UNL     1     -28.800 -11.427  18.639  0.00  0.00    +0.085 C 
ATOM      6  C   UNL     1     -27.852 -12.388  19.382  0.00  0.00    +0.022 C 
ENDROOT
BRANCH   1   7
ATOM      7  C   UNL     1     -27.882 -13.916  21.474  0.00  0.00    +0.203 C 
BRANCH   7   9
ATOM      8  N   UNL     1     -26.049 -15.062  20.118  0.00  0.00    -0.327 N 
ATOM      9  C   UNL     1     -26.430 -14.277  21.249  0.00  0.00    +0.239 C 
ATOM     10  O   UNL     1     -25.547 -13.894  22.062  0.00  0.00    -0.273 OA
ATOM     11  H   UNL     1     -26.761 -15.390  19.430  0.00  0.00    +0.145 HD
ATOM     12  H   UNL     1     -25.047 -15.319  19.969  0.00  0.00    +0.145 HD
ENDBRANCH   7   9
BRANCH   7  13
ATOM     13  O   UNL     1     -28.563 -14.997  22.057  0.00  0.00    -0.382 OA
ATOM     14  H   UNL     1     -28.106 -15.825  21.756  0.00  0.00    +0.210 HD
ENDBRANCH   7  13
ENDBRANCH   1   7
BRANCH   4  15
ATOM     15  C   UNL     1     -29.612 -12.990  16.932  0.00  0.00    +0.119 C 
BRANCH  15  16
ATOM     16  C   UNL     1     -30.550 -12.752  15.777  0.00  0.00    -0.030 A 
ATOM     17  C   UNL     1     -30.709 -13.720  14.772  0.00  0.00    +0.008 A 
ATOM     18  C   UNL     1     -31.592 -13.496  13.711  0.00  0.00    +0.041 A 
ATOM     19  C   UNL     1     -32.323 -12.307  13.647  0.00  0.00    +0.158 A 
ATOM     20  F   UNL     1     -33.179 -12.094  12.617  0.00  0.00    -0.202 F 
ATOM     21  C   UNL     1     -32.172 -11.339  14.646  0.00  0.00    +0.159 A 
ATOM     22  F   UNL     1     -32.882 -10.185  14.586  0.00  0.00    -0.202 F 
ATOM     23  C   UNL     1     -31.289 -11.560  15.708  0.00  0.00    +0.046 A 
ENDBRANCH  15  16
ENDBRANCH   4  15
TORSDOF 5
ENDMDL
MODEL 2
REMARK VINA RESULT:    -4.607      1.583      2.209
REMARK INTER + INTRA:          -6.177
REMARK INTER:                  -5.593
REMARK INTRA:                  -0.584
REMARK UNBOUND:                -0.358
REMARK  Name = 
REMARK  5 active torsions:
REMARK  status: ('A' for Active; 'I' for Inactive)
REMARK    1  A    between atoms: C_2  and  C_4
REMARK    2  A    between atoms: C_4  and  O_5
REMARK    3  A    between atoms: C_4  and  C_6
REMARK    4  A    between atoms: N_9  and  C_10
REMARK    5  A    between atoms: C_10  and  C_11
REMARK                            x       y       z     vdW  Elec       q    Type
REMARK                         _______ _______ _______ _____ _____    ______ ____
ROOT
ATOM      1  C   UNL     1     -29.208 -12.343  19.239  0.00  0.00    +0.029 C 
ATOM      2  C   UNL     1     -30.559 -13.040  19.473  0.00  0.00    +0.022 C 
ATOM      3  C   UNL     1     -31.433 -12.983  18.203  0.00  0.00    +0.085 C 
ATOM      4  N   UNL     1     -31.347 -11.695  17.460  0.00  0.00    -0.298 NA
ATOM      5  C   UNL     1     -30.822 -10.581  18.275  0.00  0.00    +0.085 C 
ATOM      6  C   UNL     1     -29.407 -10.863  18.816  0.00  0.00    +0.022 C 
ENDROOT
BRANCH   1   7
ATOM      7  C   UNL     1     -28.238 -12.513  20.435  0.00  0.00    +0.203 C 
BRANCH   7   9
ATOM      8  N   UNL     1     -27.545 -14.967  20.521  0.00  0.00    -0.327 N 
ATOM      9  C   UNL     1     -27.219 -13.609  20.221  0.00  0.00    +0.239 C 
ATOM     10  O   UNL     1     -26.070 -13.331  19.782  0.00  0.00    -0.273 OA
ATOM     11  H   UNL     1     -28.489 -15.222  20.885  0.00  0.00    +0.145 HD
ATOM     12  H   UNL     1     -26.836 -15.721  20.381  0.00  0.00    +0.145 HD
ENDBRANCH   7   9
BRANCH   7  13
ATOM     13  O   UNL     1     -28.976 -12.762  21.604  0.00  0.00    -0.382 OA
ATOM     14  H   UNL     1     -29.812 -13.220  21.327  0.00  0.00    +0.210 HD
ENDBRANCH   7  13
ENDBRANCH   1   7
BRANCH   4  15
ATOM     15  C   UNL     1     -30.641 -11.820  16.166  0.00  0.00    +0.119 C 
BRANCH  15  16
ATOM     16  C   UNL     1     -31.633 -12.027  15.051  0.00  0.00    -0.030 A 
ATOM     17  C   UNL     1     -32.820 -11.277  14.999  0.00  0.00    +0.008 A 
ATOM     18  C   UNL     1     -33.728 -11.467  13.953  0.00  0.00    +0.041 A 
ATOM     19  C   UNL     1     -33.457 -12.403  12.951  0.00  0.00    +0.158 A 
ATOM     20  F   UNL     1     -34.340 -12.583  11.938  0.00  0.00    -0.202 F 
ATOM     21  C   UNL     1     -32.276 -13.152  12.995  0.00  0.00    +0.159 A 
ATOM     22  F   UNL     1     -32.011 -14.060  12.023  0.00  0.00    -0.202 F 
ATOM     23  C   UNL     1     -31.367 -12.964  14.040  0.00  0.00    +0.046 A 
ENDBRANCH  15  16
ENDBRANCH   4  15
TORSDOF 5
ENDMDL
MODEL 3
REMARK VINA RESULT:    -4.517      2.386      3.095
REMARK INTER + INTRA:          -6.063
REMARK INTER:                  -5.549
REMARK INTRA:                  -0.514
REMARK UNBOUND:                -0.358
REMARK  Name = 
REMARK  5 active torsions:
REMARK  status: ('A' for Active; 'I' for Inactive)
REMARK    1  A    between atoms: C_2  and  C_4
REMARK    2  A    between atoms: C_4  and  O_5
REMARK    3  A    between atoms: C_4  and  C_6
REMARK    4  A    between atoms: N_9  and  C_10
REMARK    5  A    between atoms: C_10  and  C_11
REMARK                            x       y       z     vdW  Elec       q    Type
REMARK                         _______ _______ _______ _____ _____    ______ ____
ROOT
ATOM      1  C   UNL     1     -28.773 -12.703  20.999  0.00  0.00    +0.029 C 
ATOM      2  C   UNL     1     -30.096 -13.393  20.626  0.00  0.00    +0.022 C 
ATOM      3  C   UNL     1     -31.053 -12.405  19.928  0.00  0.00    +0.085 C 
ATOM      4  N   UNL     1     -31.033 -11.030  20.500  0.00  0.00    -0.298 NA
ATOM      5  C   UNL     1     -30.470 -10.969  21.864  0.00  0.00    +0.085 C 
ATOM      6  C   UNL     1     -29.019 -11.483  21.926  0.00  0.00    +0.022 C 
ENDROOT
BRANCH   1   7
ATOM      7  C   UNL     1     -27.724 -13.697  21.560  0.00  0.00    +0.203 C 
BRANCH   7   9
ATOM      8  N   UNL     1     -25.271 -14.300  21.202  0.00  0.00    -0.327 N 
ATOM      9  C   UNL     1     -26.515 -13.851  20.664  0.00  0.00    +0.239 C 
ATOM     10  O   UNL     1     -26.596 -13.577  19.436  0.00  0.00    -0.273 OA
ATOM     11  H   UNL     1     -25.180 -14.534  22.215  0.00  0.00    +0.145 HD
ATOM     12  H   UNL     1     -24.435 -14.398  20.584  0.00  0.00    +0.145 HD
ENDBRANCH   7   9
BRANCH   7  13
ATOM     13  O   UNL     1     -28.330 -14.946  21.774  0.00  0.00    -0.382 OA
ATOM     14  H   UNL     1     -29.110 -14.998  21.161  0.00  0.00    +0.210 HD
ENDBRANCH   7  13
ENDBRANCH   1   7
BRANCH   4  15
ATOM     15  C   UNL     1     -30.413 -10.037  19.596  0.00  0.00    +0.119 C 
BRANCH  15  16
ATOM     16  C   UNL     1     -31.287  -9.813  18.390  0.00  0.00    -0.030 A 
ATOM     17  C   UNL     1     -32.548  -9.208  18.520  0.00  0.00    +0.008 A 
ATOM     18  C   UNL     1     -33.346  -8.994  17.393  0.00  0.00    +0.041 A 
ATOM     19  C   UNL     1     -32.892  -9.380  16.129  0.00  0.00    +0.158 A 
ATOM     20  F   UNL     1     -33.670  -9.169  15.038  0.00  0.00    -0.202 F 
ATOM     21  C   UNL     1     -31.637  -9.982  15.991  0.00  0.00    +0.159 A 
ATOM     22  F   UNL     1     -31.195 -10.355  14.764  0.00  0.00    -0.202 F 
ATOM     23  C   UNL     1     -30.836 -10.197  17.117  0.00  0.00    +0.046 A 
ENDBRANCH  15  16
ENDBRANCH   4  15
TORSDOF 5
ENDMDL
MODEL 4
REMARK VINA RESULT:    -4.468      3.629      4.901
REMARK INTER + INTRA:          -6.001
REMARK INTER:                  -5.385
REMARK INTRA:                  -0.616
REMARK UNBOUND:                -0.358
REMARK  Name = 
REMARK  5 active torsions:
REMARK  status: ('A' for Active; 'I' for Inactive)
REMARK    1  A    between atoms: C_2  and  C_4
REMARK    2  A    between atoms: C_4  and  O_5
REMARK    3  A    between atoms: C_4  and  C_6
REMARK    4  A    between atoms: N_9  and  C_10
REMARK    5  A    between atoms: C_10  and  C_11
REMARK                            x       y       z     vdW  Elec       q    Type
REMARK                         _______ _______ _______ _____ _____    ______ ____
ROOT
ATOM      1  C   UNL     1     -30.920  -9.374  19.247  0.00  0.00    +0.029 C 
ATOM      2  C   UNL     1     -29.629 -10.126  18.882  0.00  0.00    +0.022 C 
ATOM      3  C   UNL     1     -29.661 -10.592  17.412  0.00  0.00    +0.085 C 
ATOM      4  N   UNL     1     -30.993 -11.076  16.955  0.00  0.00    -0.298 NA
ATOM      5  C   UNL     1     -31.897 -11.443  18.064  0.00  0.00    +0.085 C 
ATOM      6  C   UNL     1     -32.171 -10.262  19.016  0.00  0.00    +0.022 C 
ENDROOT
BRANCH   1   7
ATOM      7  C   UNL     1     -30.863  -8.753  20.666  0.00  0.00    +0.203 C 
BRANCH   7   9
ATOM      8  N   UNL     1     -29.690  -6.590  21.343  0.00  0.00    -0.327 N 
ATOM      9  C   UNL     1     -30.754  -7.245  20.649  0.00  0.00    +0.239 C 
ATOM     10  O   UNL     1     -31.606  -6.553  20.029  0.00  0.00    -0.273 OA
ATOM     11  H   UNL     1     -28.973  -7.141  21.863  0.00  0.00    +0.145 HD
ATOM     12  H   UNL     1     -29.622  -5.548  21.338  0.00  0.00    +0.145 HD
ENDBRANCH   7   9
BRANCH   7  13
ATOM     13  O   UNL     1     -29.786  -9.308  21.377  0.00  0.00    -0.382 OA
ATOM     14  H   UNL     1     -30.009  -9.237  22.342  0.00  0.00    +0.210 HD
ENDBRANCH   7  13
ENDBRANCH   1   7
BRANCH   4  15
ATOM     15  C   UNL     1     -31.639 -10.163  15.987  0.00  0.00    +0.119 C 
BRANCH  15  16
ATOM     16  C   UNL     1     -32.349 -10.954  14.920  0.00  0.00    -0.030 A 
ATOM     17  C   UNL     1     -33.647 -10.605  14.512  0.00  0.00    +0.008 A 
ATOM     18  C   UNL     1     -34.291 -11.338  13.510  0.00  0.00    +0.041 A 
ATOM     19  C   UNL     1     -33.646 -12.422  12.910  0.00  0.00    +0.158 A 
ATOM     20  F   UNL     1     -34.276 -13.130  11.939  0.00  0.00    -0.202 F 
ATOM     21  C   UNL     1     -32.353 -12.775  13.310  0.00  0.00    +0.159 A 
ATOM     22  F   UNL     1     -31.725 -13.826  12.727  0.00  0.00    -0.202 F 
ATOM     23  C   UNL     1     -31.706 -12.044  14.311  0.00  0.00    +0.046 A 
ENDBRANCH  15  16
ENDBRANCH   4  15
TORSDOF 5
ENDMDL
MODEL 5
REMARK VINA RESULT:    -4.274      3.437      4.846
REMARK INTER + INTRA:          -5.756
REMARK INTER:                  -5.296
REMARK INTRA:                  -0.460
REMARK UNBOUND:                -0.358
REMARK  Name = 
REMARK  5 active torsions:
REMARK  status: ('A' for Active; 'I' for Inactive)
REMARK    1  A    between atoms: C_2  and  C_4
REMARK    2  A    between atoms: C_4  and  O_5
REMARK    3  A    between atoms: C_4  and  C_6
REMARK    4  A    between atoms: N_9  and  C_10
REMARK    5  A    between atoms: C_10  and  C_11
REMARK                            x       y       z     vdW  Elec       q    Type
REMARK                         _______ _______ _______ _____ _____    ______ ____
ROOT
ATOM      1  C   UNL     1     -30.838 -10.383  19.155  0.00  0.00    +0.029 C 
ATOM      2  C   UNL     1     -29.405 -10.521  18.612  0.00  0.00    +0.022 C 
ATOM      3  C   UNL     1     -29.269 -11.781  17.733  0.00  0.00    +0.085 C 
ATOM      4  N   UNL     1     -30.020 -12.963  18.241  0.00  0.00    -0.298 NA
ATOM      5  C   UNL     1     -30.373 -12.864  19.672  0.00  0.00    +0.085 C 
ATOM      6  C   UNL     1     -31.248 -11.633  19.979  0.00  0.00    +0.022 C 
ENDROOT
BRANCH   1   7
ATOM      7  C   UNL     1     -31.059  -9.050  19.913  0.00  0.00    +0.203 C 
BRANCH   7   9
ATOM      8  N   UNL     1     -32.332  -8.325  17.824  0.00  0.00    -0.327 N 
ATOM      9  C   UNL     1     -32.005  -8.111  19.197  0.00  0.00    +0.239 C 
ATOM     10  O   UNL     1     -32.505  -7.128  19.807  0.00  0.00    -0.273 OA
ATOM     11  H   UNL     1     -31.931  -9.132  17.298  0.00  0.00    +0.145 HD
ATOM     12  H   UNL     1     -32.977  -7.670  17.329  0.00  0.00    +0.145 HD
ENDBRANCH   7   9
BRANCH   7  13
ATOM     13  O   UNL     1     -29.821  -8.421  20.124  0.00  0.00    -0.382 OA
ATOM     14  H   UNL     1     -29.230  -8.683  19.370  0.00  0.00    +0.210 HD
ENDBRANCH   7  13
ENDBRANCH   1   7
BRANCH   4  15
ATOM     15  C   UNL     1     -31.187 -13.311  17.402  0.00  0.00    +0.119 C 
BRANCH  15  16
ATOM     16  C   UNL     1     -30.733 -13.724  16.026  0.00  0.00    -0.030 A 
ATOM     17  C   UNL     1     -29.714 -14.677  15.863  0.00  0.00    +0.008 A 
ATOM     18  C   UNL     1     -29.309 -15.063  14.581  0.00  0.00    +0.041 A 
ATOM     19  C   UNL     1     -29.918 -14.502  13.455  0.00  0.00    +0.158 A 
ATOM     20  F   UNL     1     -29.522 -14.879  12.214  0.00  0.00    -0.202 F 
ATOM     21  C   UNL     1     -30.934 -13.553  13.609  0.00  0.00    +0.159 A 
ATOM     22  F   UNL     1     -31.527 -13.009  12.518  0.00  0.00    -0.202 F 
ATOM     23  C   UNL     1     -31.342 -13.166  14.890  0.00  0.00    +0.046 A 
ENDBRANCH  15  16
ENDBRANCH   4  15
TORSDOF 5
ENDMDL
MODEL 6
REMARK VINA RESULT:    -4.243      2.489      3.495
REMARK INTER + INTRA:          -5.717
REMARK INTER:                  -5.146
REMARK INTRA:                  -0.571
REMARK UNBOUND:                -0.358
REMARK  Name = 
REMARK  5 active torsions:
REMARK  status: ('A' for Active; 'I' for Inactive)
REMARK    1  A    between atoms: C_2  and  C_4
REMARK    2  A    between atoms: C_4  and  O_5
REMARK    3  A    between atoms: C_4  and  C_6
REMARK    4  A    between atoms: N_9  and  C_10
REMARK    5  A    between atoms: C_10  and  C_11
REMARK                            x       y       z     vdW  Elec       q    Type
REMARK                         _______ _______ _______ _____ _____    ______ ____
ROOT
ATOM      1  C   UNL     1     -30.017 -10.942  19.091  0.00  0.00    +0.029 C 
ATOM      2  C   UNL     1     -30.340  -9.486  19.468  0.00  0.00    +0.022 C 
ATOM      3  C   UNL     1     -31.670  -9.035  18.830  0.00  0.00    +0.085 C 
ATOM      4  N   UNL     1     -31.884  -9.541  17.445  0.00  0.00    -0.298 NA
ATOM      5  C   UNL     1     -30.641  -9.983  16.783  0.00  0.00    +0.085 C 
ATOM      6  C   UNL     1     -29.935 -11.117  17.551  0.00  0.00    +0.022 C 
ENDROOT
BRANCH   1   7
ATOM      7  C   UNL     1     -28.772 -11.485  19.837  0.00  0.00    +0.203 C 
BRANCH   7   9
ATOM      8  N   UNL     1     -29.166 -13.985  19.512  0.00  0.00    -0.327 N 
ATOM      9  C   UNL     1     -28.327 -12.842  19.339  0.00  0.00    +0.239 C 
ATOM     10  O   UNL     1     -27.209 -12.975  18.773  0.00  0.00    -0.273 OA
ATOM     11  H   UNL     1     -30.097 -13.899  19.977  0.00  0.00    +0.145 HD
ATOM     12  H   UNL     1     -28.853 -14.922  19.176  0.00  0.00    +0.145 HD
ENDBRANCH   7   9
BRANCH   7  13
ATOM     13  O   UNL     1     -29.038 -11.539  21.215  0.00  0.00    -0.382 OA
ATOM     14  H   UNL     1     -28.498 -12.286  21.585  0.00  0.00    +0.210 HD
ENDBRANCH   7  13
ENDBRANCH   1   7
BRANCH   4  15
ATOM     15  C   UNL     1     -32.954 -10.559  17.360  0.00  0.00    +0.119 C 
BRANCH  15  16
ATOM     16  C   UNL     1     -33.526 -10.597  15.967  0.00  0.00    -0.030 A 
ATOM     17  C   UNL     1     -34.144  -9.464  15.414  0.00  0.00    +0.008 A 
ATOM     18  C   UNL     1     -34.660  -9.506  14.115  0.00  0.00    +0.041 A 
ATOM     19  C   UNL     1     -34.561 -10.678  13.359  0.00  0.00    +0.158 A 
ATOM     20  F   UNL     1     -35.062 -10.714  12.100  0.00  0.00    -0.202 F 
ATOM     21  C   UNL     1     -33.945 -11.810  13.903  0.00  0.00    +0.159 A 
ATOM     22  F   UNL     1     -33.846 -12.947  13.170  0.00  0.00    -0.202 F 
ATOM     23  C   UNL     1     -33.428 -11.771  15.202  0.00  0.00    +0.046 A 
ENDBRANCH  15  16
ENDBRANCH   4  15
TORSDOF 5
ENDMDL
MODEL 7
REMARK VINA RESULT:    -4.203      5.214      7.733
REMARK INTER + INTRA:          -5.667
REMARK INTER:                  -5.060
REMARK INTRA:                  -0.607
REMARK UNBOUND:                -0.358
REMARK  Name = 
REMARK  5 active torsions:
REMARK  status: ('A' for Active; 'I' for Inactive)
REMARK    1  A    between atoms: C_2  and  C_4
REMARK    2  A    between atoms: C_4  and  O_5
REMARK    3  A    between atoms: C_4  and  C_6
REMARK    4  A    between atoms: N_9  and  C_10
REMARK    5  A    between atoms: C_10  and  C_11
REMARK                            x       y       z     vdW  Elec       q    Type
REMARK                         _______ _______ _______ _____ _____    ______ ____
ROOT
ATOM      1  C   UNL     1     -31.990  -9.967  18.121  0.00  0.00    +0.029 C 
ATOM      2  C   UNL     1     -30.871  -9.772  17.085  0.00  0.00    +0.022 C 
ATOM      3  C   UNL     1     -29.701 -10.743  17.349  0.00  0.00    +0.085 C 
ATOM      4  N   UNL     1     -29.393 -10.946  18.792  0.00  0.00    -0.298 NA
ATOM      5  C   UNL     1     -29.929  -9.881  19.663  0.00  0.00    +0.085 C 
ATOM      6  C   UNL     1     -31.462  -9.755  19.564  0.00  0.00    +0.022 C 
ENDROOT
BRANCH   1   7
ATOM      7  C   UNL     1     -33.249  -9.123  17.799  0.00  0.00    +0.203 C 
BRANCH   7   9
ATOM      8  N   UNL     1     -34.439 -10.686  16.170  0.00  0.00    -0.327 N 
ATOM      9  C   UNL     1     -33.831  -9.421  16.435  0.00  0.00    +0.239 C 
ATOM     10  O   UNL     1     -33.776  -8.557  15.519  0.00  0.00    -0.273 OA
ATOM     11  H   UNL     1     -34.497 -11.417  16.913  0.00  0.00    +0.145 HD
ATOM     12  H   UNL     1     -34.831 -10.893  15.225  0.00  0.00    +0.145 HD
ENDBRANCH   7   9
BRANCH   7  13
ATOM     13  O   UNL     1     -32.937  -7.758  17.903  0.00  0.00    -0.382 OA
ATOM     14  H   UNL     1     -33.018  -7.371  16.992  0.00  0.00    +0.210 HD
ENDBRANCH   7  13
ENDBRANCH   1   7
BRANCH   4  15
ATOM     15  C   UNL     1     -29.752 -12.297  19.275  0.00  0.00    +0.119 C 
BRANCH  15  16
ATOM     16  C   UNL     1     -28.597 -12.905  20.026  0.00  0.00    -0.030 A 
ATOM     17  C   UNL     1     -28.820 -13.705  21.159  0.00  0.00    +0.008 A 
ATOM     18  C   UNL     1     -27.741 -14.276  21.841  0.00  0.00    +0.041 A 
ATOM     19  C   UNL     1     -26.434 -14.054  21.398  0.00  0.00    +0.158 A 
ATOM     20  F   UNL     1     -25.391 -14.611  22.062  0.00  0.00    -0.202 F 
ATOM     21  C   UNL     1     -26.205 -13.260  20.270  0.00  0.00    +0.159 A 
ATOM     22  F   UNL     1     -24.938 -13.045  19.837  0.00  0.00    -0.202 F 
ATOM     23  C   UNL     1     -27.282 -12.688  19.585  0.00  0.00    +0.046 A 
ENDBRANCH  15  16
ENDBRANCH   4  15
TORSDOF 5
ENDMDL
MODEL 8
REMARK VINA RESULT:    -3.936      4.828      7.657
REMARK INTER + INTRA:          -5.330
REMARK INTER:                  -4.650
REMARK INTRA:                  -0.679
REMARK UNBOUND:                -0.358
REMARK  Name = 
REMARK  5 active torsions:
REMARK  status: ('A' for Active; 'I' for Inactive)
REMARK    1  A    between atoms: C_2  and  C_4
REMARK    2  A    between atoms: C_4  and  O_5
REMARK    3  A    between atoms: C_4  and  C_6
REMARK    4  A    between atoms: N_9  and  C_10
REMARK    5  A    between atoms: C_10  and  C_11
REMARK                            x       y       z     vdW  Elec       q    Type
REMARK                         _______ _______ _______ _____ _____    ______ ____
ROOT
ATOM      1  C   UNL     1     -31.625 -11.944  16.138  0.00  0.00    +0.029 C 
ATOM      2  C   UNL     1     -32.669 -12.485  17.129  0.00  0.00    +0.022 C 
ATOM      3  C   UNL     1     -32.054 -12.663  18.533  0.00  0.00    +0.085 C 
ATOM      4  N   UNL     1     -30.657 -13.177  18.525  0.00  0.00    -0.298 NA
ATOM      5  C   UNL     1     -30.279 -13.833  17.258  0.00  0.00    +0.085 C 
ATOM      6  C   UNL     1     -30.397 -12.888  16.046  0.00  0.00    +0.022 C 
ENDROOT
BRANCH   1   7
ATOM      7  C   UNL     1     -32.240 -11.603  14.757  0.00  0.00    +0.203 C 
BRANCH   7   9
ATOM      8  N   UNL     1     -34.689 -10.961  14.440  0.00  0.00    -0.327 N 
ATOM      9  C   UNL     1     -33.367 -10.598  14.841  0.00  0.00    +0.239 C 
ATOM     10  O   UNL     1     -33.146  -9.430  15.260  0.00  0.00    -0.273 OA
ATOM     11  H   UNL     1     -34.897 -11.922  14.091  0.00  0.00    +0.145 HD
ATOM     12  H   UNL     1     -35.464 -10.263  14.490  0.00  0.00    +0.145 HD
ENDBRANCH   7   9
BRANCH   7  13
ATOM     13  O   UNL     1     -32.689 -12.782  14.140  0.00  0.00    -0.382 OA
ATOM     14  H   UNL     1     -31.882 -13.309  13.900  0.00  0.00    +0.210 HD
ENDBRANCH   7  13
ENDBRANCH   1   7
BRANCH   4  15
ATOM     15  C   UNL     1     -29.666 -12.162  18.945  0.00  0.00    +0.119 C 
BRANCH  15  16
ATOM     16  C   UNL     1     -28.589 -12.802  19.783  0.00  0.00    -0.030 A 
ATOM     17  C   UNL     1     -28.920 -13.551  20.924  0.00  0.00    +0.008 A 
ATOM     18  C   UNL     1     -27.915 -14.152  21.688  0.00  0.00    +0.041 A 
ATOM     19  C   UNL     1     -26.574 -14.010  21.319  0.00  0.00    +0.158 A 
ATOM     20  F   UNL     1     -25.603 -14.595  22.062  0.00  0.00    -0.202 F 
ATOM     21  C   UNL     1     -26.238 -13.267  20.183  0.00  0.00    +0.159 A 
ATOM     22  F   UNL     1     -24.938 -13.129  19.822  0.00  0.00    -0.202 F 
ATOM     23  C   UNL     1     -27.241 -12.665  19.417  0.00  0.00    +0.046 A 
ENDBRANCH  15  16
ENDBRANCH   4  15
TORSDOF 5
ENDMDL
