MODEL 1
REMARK VINA RESULT:    -4.754      0.000      0.000
REMARK INTER + INTRA:          -9.296
REMARK INTER:                  -7.394
REMARK INTRA:                  -1.903
REMARK UNBOUND:                -1.903
REMARK  Name = 
REMARK  11 active torsions:
REMARK  status: ('A' for Active; 'I' for Inactive)
REMARK    1  A    between atoms: C_1  and  C_2
REMARK    2  A    between atoms: C_2  and  O_3
REMARK    3  A    between atoms: O_3  and  C_4
REMARK    4  A    between atoms: C_7  and  O_10
REMARK    5  A    between atoms: O_10  and  C_11
REMARK    6  A    between atoms: C_11  and  C_12
REMARK    7  A    between atoms: N_14  and  C_15
REMARK    8  A    between atoms: C_15  and  C_16
REMARK    9  A    between atoms: C_15  and  C_20
REMARK   10  A    between atoms: C_16  and  C_17
REMARK   11  A    between atoms: C_17  and  O_19
REMARK                            x       y       z     vdW  Elec       q    Type
REMARK                         _______ _______ _______ _____ _____    ______ ____
ROOT
ATOM      1  C   UNL     1     -31.100 -10.599  16.454  0.00  0.00    +0.251 C 
ATOM      2  O   UNL     1     -30.538  -9.849  15.610  0.00  0.00    -0.272 OA
ATOM      3  N   UNL     1     -31.310 -11.988  16.163  0.00  0.00    -0.305 N 
ATOM      4  H   UNL     1     -31.732 -12.591  16.903  0.00  0.00    +0.149 HD
ENDROOT
BRANCH   1   5
ATOM      5  C   UNL     1     -31.490 -10.040  17.784  0.00  0.00    +0.324 C 
BRANCH   5   6
ATOM      6  O   UNL     1     -30.334  -9.963  18.614  0.00  0.00    -0.483 OA
BRANCH   6  10
ATOM      7  C   UNL     1     -28.201 -13.275  20.131  0.00  0.00    +0.121 A 
ATOM      8  C   UNL     1     -27.631 -12.420  19.168  0.00  0.00    +0.049 A 
ATOM      9  C   UNL     1     -28.356 -11.331  18.676  0.00  0.00    +0.049 A 
ATOM     10  C   UNL     1     -29.654 -11.074  19.133  0.00  0.00    +0.121 A 
ATOM     11  C   UNL     1     -30.227 -11.931  20.091  0.00  0.00    +0.049 A 
ATOM     12  C   UNL     1     -29.503 -13.022  20.581  0.00  0.00    +0.049 A 
BRANCH   7  13
ATOM     13  O   UNL     1     -27.514 -14.376  20.662  0.00  0.00    -0.492 OA
BRANCH  13  15
ATOM     14  C   UNL     1     -25.114 -14.447  20.817  0.00  0.00    +0.048 C 
ATOM     15  C   UNL     1     -26.422 -14.281  21.573  0.00  0.00    +0.225 C 
ENDBRANCH  13  15
ENDBRANCH   7  13
ENDBRANCH   6  10
ENDBRANCH   5   6
ENDBRANCH   1   5
BRANCH   3  16
ATOM     16  C   UNL     1     -30.939 -12.575  14.871  0.00  0.00    +0.120 C 
BRANCH  16  17
ATOM     17  C   UNL     1     -32.112 -12.522  13.930  0.00  0.00    +0.010 A 
ATOM     18  C   UNL     1     -32.125 -12.996  12.623  0.00  0.00    +0.013 A 
ATOM     19  C   UNL     1     -33.366 -12.841  11.992  0.00  0.00    +0.008 A 
ATOM     20  C   UNL     1     -34.334 -12.257  12.800  0.00  0.00    +0.045 A 
ATOM     21  S   UNL     1     -33.647 -11.933  14.302  0.00  0.00    -0.100 S 
ENDBRANCH  16  17
BRANCH  16  22
ATOM     22  C   UNL     1     -30.469 -14.031  15.036  0.00  0.00    +0.148 C 
BRANCH  22  23
ATOM     23  C   UNL     1     -29.728 -14.219  16.325  0.00  0.00    +0.307 C 
ATOM     24  O   UNL     1     -30.347 -14.199  17.420  0.00  0.00    -0.251 OA
BRANCH  23  25
ATOM     25  O   UNL     1     -28.347 -14.391  16.310  0.00  0.00    -0.481 OA
ATOM     26  H   UNL     1     -27.938 -15.315  16.376  0.00  0.00    +0.295 HD
ENDBRANCH  23  25
ENDBRANCH  22  23
ENDBRANCH  16  22
ENDBRANCH   3  16
TORSDOF 10
ENDMDL
MODEL 2
REMARK VINA RESULT:    -4.164      2.710      5.566
REMARK INTER + INTRA:          -8.379
REMARK INTER:                  -6.381
REMARK INTRA:                  -1.998
REMARK UNBOUND:                -1.903
REMARK  Name = 
REMARK  11 active torsions:
REMARK  status: ('A' for Active; 'I' for Inactive)
REMARK    1  A    between atoms: C_1  and  C_2
REMARK    2  A    between atoms: C_2  and  O_3
REMARK    3  A    between atoms: O_3  and  C_4
REMARK    4  A    between atoms: C_7  and  O_10
REMARK    5  A    between atoms: O_10  and  C_11
REMARK    6  A    between atoms: C_11  and  C_12
REMARK    7  A    between atoms: N_14  and  C_15
REMARK    8  A    between atoms: C_15  and  C_16
REMARK    9  A    between atoms: C_15  and  C_20
REMARK   10  A    between atoms: C_16  and  C_17
REMARK   11  A    between atoms: C_17  and  O_19
REMARK                            x       y       z     vdW  Elec       q    Type
REMARK                         _______ _______ _______ _____ _____    ______ ____
ROOT
ATOM      1  C   UNL     1     -28.576 -12.536  17.949  0.00  0.00    +0.251 C 
ATOM      2  O   UNL     1     -27.757 -13.447  18.248  0.00  0.00    -0.272 OA
ATOM      3  N   UNL     1     -29.773 -12.847  17.222  0.00  0.00    -0.305 N 
ATOM      4  H   UNL     1     -30.454 -12.078  17.035  0.00  0.00    +0.149 HD
ENDROOT
BRANCH   1   5
ATOM      5  C   UNL     1     -28.317 -11.139  18.412  0.00  0.00    +0.324 C 
BRANCH   5   6
ATOM      6  O   UNL     1     -28.920 -10.226  17.500  0.00  0.00    -0.483 OA
BRANCH   6  10
ATOM      7  C   UNL     1     -33.017  -9.210  17.424  0.00  0.00    +0.121 A 
ATOM      8  C   UNL     1     -32.331  -9.557  16.245  0.00  0.00    +0.049 A 
ATOM      9  C   UNL     1     -30.973  -9.887  16.291  0.00  0.00    +0.049 A 
ATOM     10  C   UNL     1     -30.279  -9.878  17.506  0.00  0.00    +0.121 A 
ATOM     11  C   UNL     1     -30.962  -9.525  18.685  0.00  0.00    +0.049 A 
ATOM     12  C   UNL     1     -32.320  -9.193  18.638  0.00  0.00    +0.049 A 
BRANCH   7  13
ATOM     13  O   UNL     1     -34.379  -8.879  17.433  0.00  0.00    -0.492 OA
BRANCH  13  15
ATOM     14  C   UNL     1     -35.054  -6.579  17.650  0.00  0.00    +0.048 C 
ATOM     15  C   UNL     1     -34.945  -7.779  16.723  0.00  0.00    +0.225 C 
ENDBRANCH  13  15
ENDBRANCH   7  13
ENDBRANCH   6  10
ENDBRANCH   5   6
ENDBRANCH   1   5
BRANCH   3  16
ATOM     16  C   UNL     1     -30.065 -14.206  16.752  0.00  0.00    +0.120 C 
BRANCH  16  17
ATOM     17  C   UNL     1     -29.783 -14.308  15.277  0.00  0.00    +0.010 A 
ATOM     18  C   UNL     1     -28.633 -14.842  14.707  0.00  0.00    +0.013 A 
ATOM     19  C   UNL     1     -28.657 -14.834  13.306  0.00  0.00    +0.008 A 
ATOM     20  C   UNL     1     -29.826 -14.305  12.771  0.00  0.00    +0.045 A 
ATOM     21  S   UNL     1     -30.831 -13.847  14.040  0.00  0.00    -0.100 S 
ENDBRANCH  16  17
BRANCH  16  22
ATOM     22  C   UNL     1     -31.529 -14.588  17.030  0.00  0.00    +0.148 C 
BRANCH  22  23
ATOM     23  C   UNL     1     -32.281 -13.446  17.642  0.00  0.00    +0.307 C 
ATOM     24  O   UNL     1     -33.140 -12.820  16.967  0.00  0.00    -0.251 OA
BRANCH  23  25
ATOM     25  O   UNL     1     -32.010 -13.060  18.950  0.00  0.00    -0.481 OA
ATOM     26  H   UNL     1     -32.512 -13.473  19.728  0.00  0.00    +0.295 HD
ENDBRANCH  23  25
ENDBRANCH  22  23
ENDBRANCH  16  22
ENDBRANCH   3  16
TORSDOF 10
ENDMDL
MODEL 3
REMARK VINA RESULT:    -4.124      2.207      5.892
REMARK INTER + INTRA:          -8.317
REMARK INTER:                  -6.363
REMARK INTRA:                  -1.954
REMARK UNBOUND:                -1.903
REMARK  Name = 
REMARK  11 active torsions:
REMARK  status: ('A' for Active; 'I' for Inactive)
REMARK    1  A    between atoms: C_1  and  C_2
REMARK    2  A    between atoms: C_2  and  O_3
REMARK    3  A    between atoms: O_3  and  C_4
REMARK    4  A    between atoms: C_7  and  O_10
REMARK    5  A    between atoms: O_10  and  C_11
REMARK    6  A    between atoms: C_11  and  C_12
REMARK    7  A    between atoms: N_14  and  C_15
REMARK    8  A    between atoms: C_15  and  C_16
REMARK    9  A    between atoms: C_15  and  C_20
REMARK   10  A    between atoms: C_16  and  C_17
REMARK   11  A    between atoms: C_17  and  O_19
REMARK                            x       y       z     vdW  Elec       q    Type
REMARK                         _______ _______ _______ _____ _____    ______ ____
ROOT
ATOM      1  C   UNL     1     -30.038 -10.101  18.794  0.00  0.00    +0.251 C 
ATOM      2  O   UNL     1     -28.910  -9.798  18.318  0.00  0.00    -0.272 OA
ATOM      3  N   UNL     1     -30.347 -11.466  19.111  0.00  0.00    -0.305 N 
ATOM      4  H   UNL     1     -31.270 -11.676  19.551  0.00  0.00    +0.149 HD
ENDROOT
BRANCH   1   5
ATOM      5  C   UNL     1     -31.025  -9.018  19.083  0.00  0.00    +0.324 C 
BRANCH   5   6
ATOM      6  O   UNL     1     -31.710  -8.679  17.880  0.00  0.00    -0.483 OA
BRANCH   6  10
ATOM      7  C   UNL     1     -33.358 -11.486  15.192  0.00  0.00    +0.121 A 
ATOM      8  C   UNL     1     -32.144 -10.833  14.909  0.00  0.00    +0.049 A 
ATOM      9  C   UNL     1     -31.617  -9.905  15.810  0.00  0.00    +0.049 A 
ATOM     10  C   UNL     1     -32.286  -9.612  17.005  0.00  0.00    +0.121 A 
ATOM     11  C   UNL     1     -33.504 -10.259  17.286  0.00  0.00    +0.049 A 
ATOM     12  C   UNL     1     -34.031 -11.187  16.382  0.00  0.00    +0.049 A 
BRANCH   7  13
ATOM     13  O   UNL     1     -33.925 -12.431  14.324  0.00  0.00    -0.492 OA
BRANCH  13  15
ATOM     14  C   UNL     1     -33.459 -13.202  12.093  0.00  0.00    +0.048 C 
ATOM     15  C   UNL     1     -34.208 -12.193  12.948  0.00  0.00    +0.225 C 
ENDBRANCH  13  15
ENDBRANCH   7  13
ENDBRANCH   6  10
ENDBRANCH   5   6
ENDBRANCH   1   5
BRANCH   3  16
ATOM     16  C   UNL     1     -29.403 -12.558  18.845  0.00  0.00    +0.120 C 
BRANCH  16  17
ATOM     17  C   UNL     1     -29.870 -13.359  17.660  0.00  0.00    +0.010 A 
ATOM     18  C   UNL     1     -31.162 -13.831  17.459  0.00  0.00    +0.013 A 
ATOM     19  C   UNL     1     -31.315 -14.523  16.251  0.00  0.00    +0.008 A 
ATOM     20  C   UNL     1     -30.151 -14.589  15.494  0.00  0.00    +0.045 A 
ATOM     21  S   UNL     1     -28.930 -13.785  16.327  0.00  0.00    -0.100 S 
ENDBRANCH  16  17
BRANCH  16  22
ATOM     22  C   UNL     1     -29.257 -13.477  20.070  0.00  0.00    +0.148 C 
BRANCH  22  23
ATOM     23  C   UNL     1     -27.817 -13.664  20.440  0.00  0.00    +0.307 C 
ATOM     24  O   UNL     1     -27.392 -13.257  21.553  0.00  0.00    -0.251 OA
BRANCH  23  25
ATOM     25  O   UNL     1     -26.943 -14.264  19.540  0.00  0.00    -0.481 OA
ATOM     26  H   UNL     1     -25.990 -13.934  19.442  0.00  0.00    +0.295 HD
ENDBRANCH  23  25
ENDBRANCH  22  23
ENDBRANCH  16  22
ENDBRANCH   3  16
TORSDOF 10
ENDMDL
MODEL 4
REMARK VINA RESULT:    -4.081      2.003      3.426
REMARK INTER + INTRA:          -8.250
REMARK INTER:                  -6.407
REMARK INTRA:                  -1.843
REMARK UNBOUND:                -1.903
REMARK  Name = 
REMARK  11 active torsions:
REMARK  status: ('A' for Active; 'I' for Inactive)
REMARK    1  A    between atoms: C_1  and  C_2
REMARK    2  A    between atoms: C_2  and  O_3
REMARK    3  A    between atoms: O_3  and  C_4
REMARK    4  A    between atoms: C_7  and  O_10
REMARK    5  A    between atoms: O_10  and  C_11
REMARK    6  A    between atoms: C_11  and  C_12
REMARK    7  A    between atoms: N_14  and  C_15
REMARK    8  A    between atoms: C_15  and  C_16
REMARK    9  A    between atoms: C_15  and  C_20
REMARK   10  A    between atoms: C_16  and  C_17
REMARK   11  A    between atoms: C_17  and  O_19
REMARK                            x       y       z     vdW  Elec       q    Type
REMARK                         _______ _______ _______ _____ _____    ______ ____
ROOT
ATOM      1  C   UNL     1     -31.936 -10.562  16.869  0.00  0.00    +0.251 C 
ATOM      2  O   UNL     1     -33.037 -11.011  17.289  0.00  0.00    -0.272 OA
ATOM      3  N   UNL     1     -31.285 -11.172  15.745  0.00  0.00    -0.305 N 
ATOM      4  H   UNL     1     -30.401 -10.744  15.391  0.00  0.00    +0.149 HD
ENDROOT
BRANCH   1   5
ATOM      5  C   UNL     1     -31.347  -9.350  17.514  0.00  0.00    +0.324 C 
BRANCH   5   6
ATOM      6  O   UNL     1     -30.770  -9.721  18.764  0.00  0.00    -0.483 OA
BRANCH   6  10
ATOM      7  C   UNL     1     -27.824 -12.699  19.288  0.00  0.00    +0.121 A 
ATOM      8  C   UNL     1     -29.018 -12.716  20.034  0.00  0.00    +0.049 A 
ATOM      9  C   UNL     1     -29.979 -11.719  19.848  0.00  0.00    +0.049 A 
ATOM     10  C   UNL     1     -29.770 -10.692  18.919  0.00  0.00    +0.121 A 
ATOM     11  C   UNL     1     -28.574 -10.670  18.177  0.00  0.00    +0.049 A 
ATOM     12  C   UNL     1     -27.612 -11.667  18.365  0.00  0.00    +0.049 A 
BRANCH   7  13
ATOM     13  O   UNL     1     -26.832 -13.679  19.432  0.00  0.00    -0.492 OA
BRANCH  13  15
ATOM     14  C   UNL     1     -25.575 -14.889  21.090  0.00  0.00    +0.048 C 
ATOM     15  C   UNL     1     -25.727 -13.582  20.328  0.00  0.00    +0.225 C 
ENDBRANCH  13  15
ENDBRANCH   7  13
ENDBRANCH   6  10
ENDBRANCH   5   6
ENDBRANCH   1   5
BRANCH   3  16
ATOM     16  C   UNL     1     -31.833 -12.361  15.083  0.00  0.00    +0.120 C 
BRANCH  16  17
ATOM     17  C   UNL     1     -30.733 -13.355  14.825  0.00  0.00    +0.010 A 
ATOM     18  C   UNL     1     -29.817 -13.812  15.766  0.00  0.00    +0.013 A 
ATOM     19  C   UNL     1     -28.922 -14.759  15.250  0.00  0.00    +0.008 A 
ATOM     20  C   UNL     1     -29.136 -15.057  13.910  0.00  0.00    +0.045 A 
ATOM     21  S   UNL     1     -30.440 -14.143  13.364  0.00  0.00    -0.100 S 
ENDBRANCH  16  17
BRANCH  16  22
ATOM     22  C   UNL     1     -32.521 -11.992  13.757  0.00  0.00    +0.148 C 
BRANCH  22  23
ATOM     23  C   UNL     1     -34.012 -11.973  13.907  0.00  0.00    +0.307 C 
ATOM     24  O   UNL     1     -34.751 -12.011  12.888  0.00  0.00    -0.251 OA
BRANCH  23  25
ATOM     25  O   UNL     1     -34.579 -11.886  15.174  0.00  0.00    -0.481 OA
ATOM     26  H   UNL     1     -34.982 -12.702  15.619  0.00  0.00    +0.295 HD
ENDBRANCH  23  25
ENDBRANCH  22  23
ENDBRANCH  16  22
ENDBRANCH   3  16
TORSDOF 10
ENDMDL
MODEL 5
REMARK VINA RESULT:    -3.957      2.881      6.913
REMARK INTER + INTRA:          -8.058
REMARK INTER:                  -6.551
REMARK INTRA:                  -1.507
REMARK UNBOUND:                -1.903
REMARK  Name = 
REMARK  11 active torsions:
REMARK  status: ('A' for Active; 'I' for Inactive)
REMARK    1  A    between atoms: C_1  and  C_2
REMARK    2  A    between atoms: C_2  and  O_3
REMARK    3  A    between atoms: O_3  and  C_4
REMARK    4  A    between atoms: C_7  and  O_10
REMARK    5  A    between atoms: O_10  and  C_11
REMARK    6  A    between atoms: C_11  and  C_12
REMARK    7  A    between atoms: N_14  and  C_15
REMARK    8  A    between atoms: C_15  and  C_16
REMARK    9  A    between atoms: C_15  and  C_20
REMARK   10  A    between atoms: C_16  and  C_17
REMARK   11  A    between atoms: C_17  and  O_19
REMARK                            x       y       z     vdW  Elec       q    Type
REMARK                         _______ _______ _______ _____ _____    ______ ____
ROOT
ATOM      1  C   UNL     1     -30.426 -11.150  20.652  0.00  0.00    +0.251 C 
ATOM      2  O   UNL     1     -31.346 -11.901  21.076  0.00  0.00    -0.272 OA
ATOM      3  N   UNL     1     -29.290 -11.707  19.976  0.00  0.00    -0.305 N 
ATOM      4  H   UNL     1     -28.571 -11.053  19.593  0.00  0.00    +0.149 HD
ENDROOT
BRANCH   1   5
ATOM      5  C   UNL     1     -30.561  -9.670  20.807  0.00  0.00    +0.324 C 
BRANCH   5   6
ATOM      6  O   UNL     1     -30.296  -9.044  19.554  0.00  0.00    -0.483 OA
BRANCH   6  10
ATOM      7  C   UNL     1     -32.425  -9.782  15.984  0.00  0.00    +0.121 A 
ATOM      8  C   UNL     1     -31.034  -9.987  16.058  0.00  0.00    +0.049 A 
ATOM      9  C   UNL     1     -30.348  -9.734  17.248  0.00  0.00    +0.049 A 
ATOM     10  C   UNL     1     -31.030  -9.275  18.381  0.00  0.00    +0.121 A 
ATOM     11  C   UNL     1     -32.420  -9.062  18.306  0.00  0.00    +0.049 A 
ATOM     12  C   UNL     1     -33.106  -9.315  17.114  0.00  0.00    +0.049 A 
BRANCH   7  13
ATOM     13  O   UNL     1     -33.162 -10.028  14.816  0.00  0.00    -0.492 OA
BRANCH  13  15
ATOM     14  C   UNL     1     -33.075 -12.144  13.673  0.00  0.00    +0.048 C 
ATOM     15  C   UNL     1     -33.894 -11.225  14.564  0.00  0.00    +0.225 C 
ENDBRANCH  13  15
ENDBRANCH   7  13
ENDBRANCH   6  10
ENDBRANCH   5   6
ENDBRANCH   1   5
BRANCH   3  16
ATOM     16  C   UNL     1     -29.122 -13.154  19.802  0.00  0.00    +0.120 C 
BRANCH  16  17
ATOM     17  C   UNL     1     -27.838 -13.601  20.445  0.00  0.00    +0.010 A 
ATOM     18  C   UNL     1     -26.565 -13.445  19.908  0.00  0.00    +0.013 A 
ATOM     19  C   UNL     1     -25.550 -13.930  20.743  0.00  0.00    +0.008 A 
ATOM     20  C   UNL     1     -26.018 -14.458  21.941  0.00  0.00    +0.045 A 
ATOM     21  S   UNL     1     -27.695 -14.320  21.963  0.00  0.00    -0.100 S 
ENDBRANCH  16  17
BRANCH  16  22
ATOM     22  C   UNL     1     -29.119 -13.538  18.312  0.00  0.00    +0.148 C 
BRANCH  22  23
ATOM     23  C   UNL     1     -30.497 -13.887  17.838  0.00  0.00    +0.307 C 
ATOM     24  O   UNL     1     -31.036 -13.223  16.914  0.00  0.00    -0.251 OA
BRANCH  23  25
ATOM     25  O   UNL     1     -31.192 -14.931  18.440  0.00  0.00    -0.481 OA
ATOM     26  H   UNL     1     -32.204 -14.972  18.401  0.00  0.00    +0.295 HD
ENDBRANCH  23  25
ENDBRANCH  22  23
ENDBRANCH  16  22
ENDBRANCH   3  16
TORSDOF 10
ENDMDL
MODEL 6
REMARK VINA RESULT:    -3.915      2.756      7.341
REMARK INTER + INTRA:          -7.992
REMARK INTER:                  -5.942
REMARK INTRA:                  -2.050
REMARK UNBOUND:                -1.903
REMARK  Name = 
REMARK  11 active torsions:
REMARK  status: ('A' for Active; 'I' for Inactive)
REMARK    1  A    between atoms: C_1  and  C_2
REMARK    2  A    between atoms: C_2  and  O_3
REMARK    3  A    between atoms: O_3  and  C_4
REMARK    4  A    between atoms: C_7  and  O_10
REMARK    5  A    between atoms: O_10  and  C_11
REMARK    6  A    between atoms: C_11  and  C_12
REMARK    7  A    between atoms: N_14  and  C_15
REMARK    8  A    between atoms: C_15  and  C_16
REMARK    9  A    between atoms: C_15  and  C_20
REMARK   10  A    between atoms: C_16  and  C_17
REMARK   11  A    between atoms: C_17  and  O_19
REMARK                            x       y       z     vdW  Elec       q    Type
REMARK                         _______ _______ _______ _____ _____    ______ ____
ROOT
ATOM      1  C   UNL     1     -29.221 -13.954  16.542  0.00  0.00    +0.251 C 
ATOM      2  O   UNL     1     -28.103 -14.158  15.995  0.00  0.00    -0.272 OA
ATOM      3  N   UNL     1     -29.327 -13.073  17.669  0.00  0.00    -0.305 N 
ATOM      4  H   UNL     1     -30.274 -12.887  18.066  0.00  0.00    +0.149 HD
ENDROOT
BRANCH   1   5
ATOM      5  C   UNL     1     -30.444 -14.591  15.965  0.00  0.00    +0.324 C 
BRANCH   5   6
ATOM      6  O   UNL     1     -31.015 -13.713  14.998  0.00  0.00    -0.483 OA
BRANCH   6  10
ATOM      7  C   UNL     1     -33.798 -10.640  15.791  0.00  0.00    +0.121 A 
ATOM      8  C   UNL     1     -32.901 -10.549  14.710  0.00  0.00    +0.049 A 
ATOM      9  C   UNL     1     -31.985 -11.576  14.467  0.00  0.00    +0.049 A 
ATOM     10  C   UNL     1     -31.947 -12.707  15.291  0.00  0.00    +0.121 A 
ATOM     11  C   UNL     1     -32.838 -12.796  16.377  0.00  0.00    +0.049 A 
ATOM     12  C   UNL     1     -33.754 -11.768  16.620  0.00  0.00    +0.049 A 
BRANCH   7  13
ATOM     13  O   UNL     1     -34.742  -9.642  16.073  0.00  0.00    -0.492 OA
BRANCH  13  15
ATOM     14  C   UNL     1     -35.011  -7.487  15.035  0.00  0.00    +0.048 C 
ATOM     15  C   UNL     1     -34.432  -8.257  16.211  0.00  0.00    +0.225 C 
ENDBRANCH  13  15
ENDBRANCH   7  13
ENDBRANCH   6  10
ENDBRANCH   5   6
ENDBRANCH   1   5
BRANCH   3  16
ATOM     16  C   UNL     1     -28.151 -12.428  18.263  0.00  0.00    +0.120 C 
BRANCH  16  17
ATOM     17  C   UNL     1     -27.852 -13.042  19.603  0.00  0.00    +0.010 A 
ATOM     18  C   UNL     1     -26.599 -13.446  20.048  0.00  0.00    +0.013 A 
ATOM     19  C   UNL     1     -26.614 -13.957  21.353  0.00  0.00    +0.008 A 
ATOM     20  C   UNL     1     -27.874 -13.948  21.940  0.00  0.00    +0.045 A 
ATOM     21  S   UNL     1     -28.969 -13.303  20.838  0.00  0.00    -0.100 S 
ENDBRANCH  16  17
BRANCH  16  22
ATOM     22  C   UNL     1     -28.369 -10.913  18.421  0.00  0.00    +0.148 C 
BRANCH  22  23
ATOM     23  C   UNL     1     -29.704 -10.497  17.883  0.00  0.00    +0.307 C 
ATOM     24  O   UNL     1     -29.775  -9.748  16.874  0.00  0.00    -0.251 OA
BRANCH  23  25
ATOM     25  O   UNL     1     -30.868 -10.920  18.517  0.00  0.00    -0.481 OA
ATOM     26  H   UNL     1     -31.540 -11.504  18.034  0.00  0.00    +0.295 HD
ENDBRANCH  23  25
ENDBRANCH  22  23
ENDBRANCH  16  22
ENDBRANCH   3  16
TORSDOF 10
ENDMDL
MODEL 7
REMARK VINA RESULT:    -3.891      2.598      5.736
REMARK INTER + INTRA:          -7.954
REMARK INTER:                  -5.626
REMARK INTRA:                  -2.328
REMARK UNBOUND:                -1.903
REMARK  Name = 
REMARK  11 active torsions:
REMARK  status: ('A' for Active; 'I' for Inactive)
REMARK    1  A    between atoms: C_1  and  C_2
REMARK    2  A    between atoms: C_2  and  O_3
REMARK    3  A    between atoms: O_3  and  C_4
REMARK    4  A    between atoms: C_7  and  O_10
REMARK    5  A    between atoms: O_10  and  C_11
REMARK    6  A    between atoms: C_11  and  C_12
REMARK    7  A    between atoms: N_14  and  C_15
REMARK    8  A    between atoms: C_15  and  C_16
REMARK    9  A    between atoms: C_15  and  C_20
REMARK   10  A    between atoms: C_16  and  C_17
REMARK   11  A    between atoms: C_17  and  O_19
REMARK                            x       y       z     vdW  Elec       q    Type
REMARK                         _______ _______ _______ _____ _____    ______ ____
ROOT
ATOM      1  C   UNL     1     -31.018 -10.488  21.318  0.00  0.00    +0.251 C 
ATOM      2  O   UNL     1     -32.184 -10.886  21.587  0.00  0.00    -0.272 OA
ATOM      3  N   UNL     1     -30.811  -9.450  20.349  0.00  0.00    -0.305 N 
ATOM      4  H   UNL     1     -29.838  -9.109  20.187  0.00  0.00    +0.149 HD
ENDROOT
BRANCH   1   5
ATOM      5  C   UNL     1     -29.858 -11.065  22.062  0.00  0.00    +0.324 C 
BRANCH   5   6
ATOM      6  O   UNL     1     -29.583 -12.370  21.558  0.00  0.00    -0.483 OA
BRANCH   6  10
ATOM      7  C   UNL     1     -29.314 -13.347  17.460  0.00  0.00    +0.121 A 
ATOM      8  C   UNL     1     -30.445 -13.700  18.220  0.00  0.00    +0.049 A 
ATOM      9  C   UNL     1     -30.513 -13.370  19.576  0.00  0.00    +0.049 A 
ATOM     10  C   UNL     1     -29.461 -12.685  20.197  0.00  0.00    +0.121 A 
ATOM     11  C   UNL     1     -28.327 -12.338  19.440  0.00  0.00    +0.049 A 
ATOM     12  C   UNL     1     -28.259 -12.670  18.083  0.00  0.00    +0.049 A 
BRANCH   7  13
ATOM     13  O   UNL     1     -29.199 -13.648  16.095  0.00  0.00    -0.492 OA
BRANCH  13  15
ATOM     14  C   UNL     1     -30.817 -13.572  14.315  0.00  0.00    +0.048 C 
ATOM     15  C   UNL     1     -30.135 -14.436  15.363  0.00  0.00    +0.225 C 
ENDBRANCH  13  15
ENDBRANCH   7  13
ENDBRANCH   6  10
ENDBRANCH   5   6
ENDBRANCH   1   5
BRANCH   3  16
ATOM     16  C   UNL     1     -31.924  -8.856  19.598  0.00  0.00    +0.120 C 
BRANCH  16  17
ATOM     17  C   UNL     1     -31.867  -9.302  18.162  0.00  0.00    +0.010 A 
ATOM     18  C   UNL     1     -30.718  -9.670  17.473  0.00  0.00    +0.013 A 
ATOM     19  C   UNL     1     -30.970 -10.071  16.154  0.00  0.00    +0.008 A 
ATOM     20  C   UNL     1     -32.315 -10.029  15.805  0.00  0.00    +0.045 A 
ATOM     21  S   UNL     1     -33.192  -9.495  17.138  0.00  0.00    -0.100 S 
ENDBRANCH  16  17
BRANCH  16  22
ATOM     22  C   UNL     1     -31.884  -7.319  19.668  0.00  0.00    +0.148 C 
BRANCH  22  23
ATOM     23  C   UNL     1     -31.029  -6.850  20.806  0.00  0.00    +0.307 C 
ATOM     24  O   UNL     1     -31.555  -6.283  21.800  0.00  0.00    -0.251 OA
BRANCH  23  25
ATOM     25  O   UNL     1     -29.650  -7.018  20.751  0.00  0.00    -0.481 OA
ATOM     26  H   UNL     1     -29.245  -7.883  20.414  0.00  0.00    +0.295 HD
ENDBRANCH  23  25
ENDBRANCH  22  23
ENDBRANCH  16  22
ENDBRANCH   3  16
TORSDOF 10
ENDMDL
MODEL 8
REMARK VINA RESULT:    -3.890      2.652      6.553
REMARK INTER + INTRA:          -7.952
REMARK INTER:                  -5.425
REMARK INTRA:                  -2.527
REMARK UNBOUND:                -1.903
REMARK  Name = 
REMARK  11 active torsions:
REMARK  status: ('A' for Active; 'I' for Inactive)
REMARK    1  A    between atoms: C_1  and  C_2
REMARK    2  A    between atoms: C_2  and  O_3
REMARK    3  A    between atoms: O_3  and  C_4
REMARK    4  A    between atoms: C_7  and  O_10
REMARK    5  A    between atoms: O_10  and  C_11
REMARK    6  A    between atoms: C_11  and  C_12
REMARK    7  A    between atoms: N_14  and  C_15
REMARK    8  A    between atoms: C_15  and  C_16
REMARK    9  A    between atoms: C_15  and  C_20
REMARK   10  A    between atoms: C_16  and  C_17
REMARK   11  A    between atoms: C_17  and  O_19
REMARK                            x       y       z     vdW  Elec       q    Type
REMARK                         _______ _______ _______ _____ _____    ______ ____
ROOT
ATOM      1  C   UNL     1     -30.408 -14.065  17.410  0.00  0.00    +0.251 C 
ATOM      2  O   UNL     1     -31.313 -14.849  17.807  0.00  0.00    -0.272 OA
ATOM      3  N   UNL     1     -29.720 -13.219  18.342  0.00  0.00    -0.305 N 
ATOM      4  H   UNL     1     -28.942 -12.620  17.988  0.00  0.00    +0.149 HD
ENDROOT
BRANCH   1   5
ATOM      5  C   UNL     1     -30.017 -14.072  15.967  0.00  0.00    +0.324 C 
BRANCH   5   6
ATOM      6  O   UNL     1     -30.987 -13.344  15.218  0.00  0.00    -0.483 OA
BRANCH   6  10
ATOM      7  C   UNL     1     -32.873  -9.794  16.507  0.00  0.00    +0.121 A 
ATOM      8  C   UNL     1     -33.620 -10.949  16.211  0.00  0.00    +0.049 A 
ATOM      9  C   UNL     1     -32.977 -12.113  15.782  0.00  0.00    +0.049 A 
ATOM     10  C   UNL     1     -31.584 -12.148  15.643  0.00  0.00    +0.121 A 
ATOM     11  C   UNL     1     -30.836 -10.992  15.933  0.00  0.00    +0.049 A 
ATOM     12  C   UNL     1     -31.480  -9.826  16.360  0.00  0.00    +0.049 A 
BRANCH   7  13
ATOM     13  O   UNL     1     -33.469  -8.603  16.948  0.00  0.00    -0.492 OA
BRANCH  13  15
ATOM     14  C   UNL     1     -34.593  -7.474  18.751  0.00  0.00    +0.048 C 
ATOM     15  C   UNL     1     -34.696  -8.537  17.669  0.00  0.00    +0.225 C 
ENDBRANCH  13  15
ENDBRANCH   7  13
ENDBRANCH   6  10
ENDBRANCH   5   6
ENDBRANCH   1   5
BRANCH   3  16
ATOM     16  C   UNL     1     -30.073 -13.186  19.766  0.00  0.00    +0.120 C 
BRANCH  16  17
ATOM     17  C   UNL     1     -31.007 -12.036  20.034  0.00  0.00    +0.010 A 
ATOM     18  C   UNL     1     -32.393 -12.079  19.941  0.00  0.00    +0.013 A 
ATOM     19  C   UNL     1     -33.007 -10.866  20.278  0.00  0.00    +0.008 A 
ATOM     20  C   UNL     1     -32.110  -9.870  20.646  0.00  0.00    +0.045 A 
ATOM     21  S   UNL     1     -30.552 -10.499  20.554  0.00  0.00    -0.100 S 
ENDBRANCH  16  17
BRANCH  16  22
ATOM     22  C   UNL     1     -28.818 -13.053  20.647  0.00  0.00    +0.148 C 
BRANCH  22  23
ATOM     23  C   UNL     1     -27.574 -12.999  19.814  0.00  0.00    +0.307 C 
ATOM     24  O   UNL     1     -27.100 -11.889  19.457  0.00  0.00    -0.251 OA
BRANCH  23  25
ATOM     25  O   UNL     1     -26.957 -14.179  19.413  0.00  0.00    -0.481 OA
ATOM     26  H   UNL     1     -26.949 -14.455  18.438  0.00  0.00    +0.295 HD
ENDBRANCH  23  25
ENDBRANCH  22  23
ENDBRANCH  16  22
ENDBRANCH   3  16
TORSDOF 10
ENDMDL
MODEL 9
REMARK VINA RESULT:    -3.821      2.769      4.940
REMARK INTER + INTRA:          -7.845
REMARK INTER:                  -5.633
REMARK INTRA:                  -2.213
REMARK UNBOUND:                -1.903
REMARK  Name = 
REMARK  11 active torsions:
REMARK  status: ('A' for Active; 'I' for Inactive)
REMARK    1  A    between atoms: C_1  and  C_2
REMARK    2  A    between atoms: C_2  and  O_3
REMARK    3  A    between atoms: O_3  and  C_4
REMARK    4  A    between atoms: C_7  and  O_10
REMARK    5  A    between atoms: O_10  and  C_11
REMARK    6  A    between atoms: C_11  and  C_12
REMARK    7  A    between atoms: N_14  and  C_15
REMARK    8  A    between atoms: C_15  and  C_16
REMARK    9  A    between atoms: C_15  and  C_20
REMARK   10  A    between atoms: C_16  and  C_17
REMARK   11  A    between atoms: C_17  and  O_19
REMARK                            x       y       z     vdW  Elec       q    Type
REMARK                         _______ _______ _______ _____ _____    ______ ____
ROOT
ATOM      1  C   UNL     1     -28.466 -12.540  17.975  0.00  0.00    +0.251 C 
ATOM      2  O   UNL     1     -27.829 -13.528  18.434  0.00  0.00    -0.272 OA
ATOM      3  N   UNL     1     -29.589 -12.743  17.106  0.00  0.00    -0.305 N 
ATOM      4  H   UNL     1     -30.126 -11.907  16.785  0.00  0.00    +0.149 HD
ENDROOT
BRANCH   1   5
ATOM      5  C   UNL     1     -28.078 -11.160  18.396  0.00  0.00    +0.324 C 
BRANCH   5   6
ATOM      6  O   UNL     1     -28.564 -10.920  19.714  0.00  0.00    -0.483 OA
BRANCH   6  10
ATOM      7  C   UNL     1     -32.614 -10.103  20.584  0.00  0.00    +0.121 A 
ATOM      8  C   UNL     1     -31.934  -9.412  19.563  0.00  0.00    +0.049 A 
ATOM      9  C   UNL     1     -30.593  -9.695  19.294  0.00  0.00    +0.049 A 
ATOM     10  C   UNL     1     -29.907 -10.668  20.031  0.00  0.00    +0.121 A 
ATOM     11  C   UNL     1     -30.583 -11.356  21.056  0.00  0.00    +0.049 A 
ATOM     12  C   UNL     1     -31.925 -11.071  21.327  0.00  0.00    +0.049 A 
BRANCH   7  13
ATOM     13  O   UNL     1     -33.961  -9.863  20.889  0.00  0.00    -0.492 OA
BRANCH  13  15
ATOM     14  C   UNL     1     -34.770  -7.750  21.710  0.00  0.00    +0.048 C 
ATOM     15  C   UNL     1     -34.413  -9.185  22.060  0.00  0.00    +0.225 C 
ENDBRANCH  13  15
ENDBRANCH   7  13
ENDBRANCH   6  10
ENDBRANCH   5   6
ENDBRANCH   1   5
BRANCH   3  16
ATOM     16  C   UNL     1     -30.003 -14.082  16.672  0.00  0.00    +0.120 C 
BRANCH  16  17
ATOM     17  C   UNL     1     -29.713 -14.257  15.206  0.00  0.00    +0.010 A 
ATOM     18  C   UNL     1     -28.561 -14.819  14.669  0.00  0.00    +0.013 A 
ATOM     19  C   UNL     1     -28.576 -14.880  13.270  0.00  0.00    +0.008 A 
ATOM     20  C   UNL     1     -29.741 -14.377  12.702  0.00  0.00    +0.045 A 
ATOM     21  S   UNL     1     -30.753 -13.857  13.941  0.00  0.00    -0.100 S 
ENDBRANCH  16  17
BRANCH  16  22
ATOM     22  C   UNL     1     -31.501 -14.314  16.937  0.00  0.00    +0.148 C 
BRANCH  22  23
ATOM     23  C   UNL     1     -32.140 -13.100  17.540  0.00  0.00    +0.307 C 
ATOM     24  O   UNL     1     -32.184 -12.021  16.894  0.00  0.00    -0.251 OA
BRANCH  23  25
ATOM     25  O   UNL     1     -32.661 -13.161  18.829  0.00  0.00    -0.481 OA
ATOM     26  H   UNL     1     -32.254 -12.615  19.579  0.00  0.00    +0.295 HD
ENDBRANCH  23  25
ENDBRANCH  22  23
ENDBRANCH  16  22
ENDBRANCH   3  16
TORSDOF 10
ENDMDL
