MODEL 1
REMARK VINA RESULT:    -4.777      0.000      0.000
REMARK INTER + INTRA:          -7.239
REMARK INTER:                  -6.593
REMARK INTRA:                  -0.646
REMARK UNBOUND:                -0.646
REMARK  Name = 
REMARK  7 active torsions:
REMARK  status: ('A' for Active; 'I' for Inactive)
REMARK    1  A    between atoms: C_2  and  O_3
REMARK    2  A    between atoms: C_2  and  C_4
REMARK    3  A    between atoms: C_9  and  C_10
REMARK    4  A    between atoms: N_12  and  C_13
REMARK    5  A    between atoms: C_17  and  O_19
REMARK    6  A    between atoms: O_19  and  C_20
REMARK    7  A    between atoms: C_20  and  C_21
REMARK                            x       y       z     vdW  Elec       q    Type
REMARK                         _______ _______ _______ _____ _____    ______ ____
ROOT
ATOM      1  C   UNL     1     -33.656 -10.771  16.630  0.00  0.00    +0.221 C 
ATOM      2  O   UNL     1     -33.915 -11.568  17.574  0.00  0.00    -0.275 OA
ATOM      3  N   UNL     1     -32.788  -9.646  16.849  0.00  0.00    -0.285 N 
ATOM      4  H   UNL     1     -32.823  -8.865  16.156  0.00  0.00    +0.155 HD
ENDROOT
BRANCH   1  10
ATOM      5  C   UNL     1     -33.647 -12.000  14.417  0.00  0.00    +0.113 C 
ATOM      6  C   UNL     1     -34.449 -12.217  13.117  0.00  0.00    +0.042 C 
ATOM      7  C   UNL     1     -34.898 -10.928  12.469  0.00  0.00    -0.030 C 
ATOM      8  C   UNL     1     -34.998  -9.769  13.142  0.00  0.00    -0.030 C 
ATOM      9  C   UNL     1     -34.477  -9.592  14.547  0.00  0.00    +0.040 C 
ATOM     10  C   UNL     1     -34.345 -10.934  15.295  0.00  0.00    +0.093 C 
BRANCH   5  12
ATOM     11  O   UNL     1     -31.684 -10.603  14.576  0.00  0.00    -0.251 OA
ATOM     12  C   UNL     1     -32.200 -11.667  14.136  0.00  0.00    +0.309 C 
BRANCH  12  13
ATOM     13  O   UNL     1     -31.417 -12.567  13.422  0.00  0.00    -0.480 OA
ATOM     14  H   UNL     1     -30.456 -12.747  13.688  0.00  0.00    +0.295 HD
ENDBRANCH  12  13
ENDBRANCH   5  12
ENDBRANCH   1  10
BRANCH   3  15
ATOM     15  C   UNL     1     -31.994  -9.458  18.033  0.00  0.00    +0.037 A 
ATOM     16  C   UNL     1     -32.227  -8.340  18.846  0.00  0.00    +0.023 A 
ATOM     17  C   UNL     1     -31.464  -8.132  19.997  0.00  0.00    +0.005 A 
ATOM     18  C   UNL     1     -30.451  -9.029  20.342  0.00  0.00    +0.046 A 
ATOM     19  C   UNL     1     -30.186 -10.144  19.523  0.00  0.00    +0.123 A 
ATOM     20  C   UNL     1     -30.952 -10.344  18.368  0.00  0.00    +0.069 A 
BRANCH  19  21
ATOM     21  O   UNL     1     -29.175 -11.070  19.820  0.00  0.00    -0.487 OA
BRANCH  21  22
ATOM     22  C   UNL     1     -29.339 -12.192  20.682  0.00  0.00    +0.266 C 
BRANCH  22  23
ATOM     23  C   UNL     1     -28.044 -12.946  20.761  0.00  0.00    +0.008 A 
ATOM     24  C   UNL     1     -27.716 -13.696  21.900  0.00  0.00    +0.010 A 
ATOM     25  C   UNL     1     -26.493 -14.368  21.963  0.00  0.00    +0.020 A 
ATOM     26  C   UNL     1     -25.604 -14.274  20.891  0.00  0.00    +0.111 A 
ATOM     27  N   UNL     1     -25.929 -13.529  19.800  0.00  0.00    -0.263 NA
ATOM     28  C   UNL     1     -27.115 -12.869  19.713  0.00  0.00    +0.117 A 
ENDBRANCH  22  23
ENDBRANCH  21  22
ENDBRANCH  19  21
ENDBRANCH   3  15
TORSDOF 7
ENDMDL
MODEL 2
REMARK VINA RESULT:    -4.718      2.451      7.934
REMARK INTER + INTRA:          -7.157
REMARK INTER:                  -6.713
REMARK INTRA:                  -0.444
REMARK UNBOUND:                -0.646
REMARK  Name = 
REMARK  7 active torsions:
REMARK  status: ('A' for Active; 'I' for Inactive)
REMARK    1  A    between atoms: C_2  and  O_3
REMARK    2  A    between atoms: C_2  and  C_4
REMARK    3  A    between atoms: C_9  and  C_10
REMARK    4  A    between atoms: N_12  and  C_13
REMARK    5  A    between atoms: C_17  and  O_19
REMARK    6  A    between atoms: O_19  and  C_20
REMARK    7  A    between atoms: C_20  and  C_21
REMARK                            x       y       z     vdW  Elec       q    Type
REMARK                         _______ _______ _______ _____ _____    ______ ____
ROOT
ATOM      1  C   UNL     1     -30.477 -13.492  18.290  0.00  0.00    +0.221 C 
ATOM      2  O   UNL     1     -31.692 -13.577  17.959  0.00  0.00    -0.275 OA
ATOM      3  N   UNL     1     -29.444 -13.828  17.349  0.00  0.00    -0.285 N 
ATOM      4  H   UNL     1     -28.489 -14.024  17.727  0.00  0.00    +0.155 HD
ENDROOT
BRANCH   1  10
ATOM      5  C   UNL     1     -30.454 -11.674  20.050  0.00  0.00    +0.113 C 
ATOM      6  C   UNL     1     -30.169 -11.396  21.541  0.00  0.00    +0.042 C 
ATOM      7  C   UNL     1     -28.846 -11.952  22.011  0.00  0.00    -0.030 C 
ATOM      8  C   UNL     1     -28.202 -12.943  21.372  0.00  0.00    -0.030 C 
ATOM      9  C   UNL     1     -28.627 -13.453  20.016  0.00  0.00    +0.040 C 
ATOM     10  C   UNL     1     -30.107 -13.143  19.713  0.00  0.00    +0.093 C 
BRANCH   5  12
ATOM     11  O   UNL     1     -29.497 -10.973  17.947  0.00  0.00    -0.251 OA
ATOM     12  C   UNL     1     -29.748 -10.687  19.150  0.00  0.00    +0.309 C 
BRANCH  12  13
ATOM     13  O   UNL     1     -29.412  -9.430  19.642  0.00  0.00    -0.480 OA
ATOM     14  H   UNL     1     -30.047  -8.920  20.245  0.00  0.00    +0.295 HD
ENDBRANCH  12  13
ENDBRANCH   5  12
ENDBRANCH   1  10
BRANCH   3  15
ATOM     15  C   UNL     1     -29.672 -14.059  15.948  0.00  0.00    +0.037 A 
ATOM     16  C   UNL     1     -28.692 -14.718  15.193  0.00  0.00    +0.023 A 
ATOM     17  C   UNL     1     -28.887 -14.948  13.829  0.00  0.00    +0.005 A 
ATOM     18  C   UNL     1     -30.056 -14.510  13.202  0.00  0.00    +0.046 A 
ATOM     19  C   UNL     1     -31.039 -13.824  13.939  0.00  0.00    +0.123 A 
ATOM     20  C   UNL     1     -30.834 -13.594  15.305  0.00  0.00    +0.069 A 
BRANCH  19  21
ATOM     21  O   UNL     1     -32.226 -13.357  13.356  0.00  0.00    -0.487 OA
BRANCH  21  22
ATOM     22  C   UNL     1     -32.563 -11.981  13.206  0.00  0.00    +0.266 C 
BRANCH  22  23
ATOM     23  C   UNL     1     -33.151 -11.474  14.489  0.00  0.00    +0.008 A 
ATOM     24  C   UNL     1     -32.507 -10.475  15.232  0.00  0.00    +0.010 A 
ATOM     25  C   UNL     1     -33.059 -10.038  16.439  0.00  0.00    +0.020 A 
ATOM     26  C   UNL     1     -34.246 -10.613  16.896  0.00  0.00    +0.111 A 
ATOM     27  N   UNL     1     -34.851 -11.594  16.173  0.00  0.00    -0.263 NA
ATOM     28  C   UNL     1     -34.335 -12.033  14.994  0.00  0.00    +0.117 A 
ENDBRANCH  22  23
ENDBRANCH  21  22
ENDBRANCH  19  21
ENDBRANCH   3  15
TORSDOF 7
ENDMDL
MODEL 3
REMARK VINA RESULT:    -4.338      2.525      8.338
REMARK INTER + INTRA:          -6.632
REMARK INTER:                  -6.086
REMARK INTRA:                  -0.546
REMARK UNBOUND:                -0.646
REMARK  Name = 
REMARK  7 active torsions:
REMARK  status: ('A' for Active; 'I' for Inactive)
REMARK    1  A    between atoms: C_2  and  O_3
REMARK    2  A    between atoms: C_2  and  C_4
REMARK    3  A    between atoms: C_9  and  C_10
REMARK    4  A    between atoms: N_12  and  C_13
REMARK    5  A    between atoms: C_17  and  O_19
REMARK    6  A    between atoms: O_19  and  C_20
REMARK    7  A    between atoms: C_20  and  C_21
REMARK                            x       y       z     vdW  Elec       q    Type
REMARK                         _______ _______ _______ _____ _____    ______ ____
ROOT
ATOM      1  C   UNL     1     -30.751 -13.757  16.894  0.00  0.00    +0.221 C 
ATOM      2  O   UNL     1     -31.664 -14.627  16.919  0.00  0.00    -0.275 OA
ATOM      3  N   UNL     1     -30.515 -12.987  15.703  0.00  0.00    -0.285 N 
ATOM      4  H   UNL     1     -29.595 -12.498  15.616  0.00  0.00    +0.155 HD
ENDROOT
BRANCH   1  10
ATOM      5  C   UNL     1     -30.603 -13.198  19.358  0.00  0.00    +0.113 C 
ATOM      6  C   UNL     1     -29.642 -13.162  20.565  0.00  0.00    +0.042 C 
ATOM      7  C   UNL     1     -28.332 -12.471  20.268  0.00  0.00    -0.030 C 
ATOM      8  C   UNL     1     -27.859 -12.310  19.020  0.00  0.00    -0.030 C 
ATOM      9  C   UNL     1     -28.679 -12.613  17.789  0.00  0.00    +0.040 C 
ATOM     10  C   UNL     1     -29.828 -13.599  18.080  0.00  0.00    +0.093 C 
BRANCH   5  12
ATOM     11  O   UNL     1     -32.389 -11.830  18.480  0.00  0.00    -0.251 OA
ATOM     12  C   UNL     1     -31.354 -11.896  19.199  0.00  0.00    +0.309 C 
BRANCH  12  13
ATOM     13  O   UNL     1     -30.926 -10.769  19.893  0.00  0.00    -0.480 OA
ATOM     14  H   UNL     1     -31.575 -10.214  20.437  0.00  0.00    +0.295 HD
ENDBRANCH  12  13
ENDBRANCH   5  12
ENDBRANCH   1  10
BRANCH   3  15
ATOM     15  C   UNL     1     -31.394 -12.971  14.565  0.00  0.00    +0.037 A 
ATOM     16  C   UNL     1     -30.972 -13.556  13.363  0.00  0.00    +0.023 A 
ATOM     17  C   UNL     1     -31.804 -13.547  12.242  0.00  0.00    +0.005 A 
ATOM     18  C   UNL     1     -33.062 -12.942  12.304  0.00  0.00    +0.046 A 
ATOM     19  C   UNL     1     -33.492 -12.328  13.495  0.00  0.00    +0.123 A 
ATOM     20  C   UNL     1     -32.649 -12.337  14.614  0.00  0.00    +0.069 A 
BRANCH  19  21
ATOM     21  O   UNL     1     -34.741 -11.700  13.608  0.00  0.00    -0.487 OA
BRANCH  21  22
ATOM     22  C   UNL     1     -35.027 -10.385  13.142  0.00  0.00    +0.266 C 
BRANCH  22  23
ATOM     23  C   UNL     1     -35.062  -9.444  14.309  0.00  0.00    +0.008 A 
ATOM     24  C   UNL     1     -35.044  -8.055  14.116  0.00  0.00    +0.010 A 
ATOM     25  C   UNL     1     -35.049  -7.198  15.219  0.00  0.00    +0.020 A 
ATOM     26  C   UNL     1     -35.062  -7.738  16.506  0.00  0.00    +0.111 A 
ATOM     27  N   UNL     1     -35.062  -9.088  16.678  0.00  0.00    -0.263 NA
ATOM     28  C   UNL     1     -35.061  -9.943  15.621  0.00  0.00    +0.117 A 
ENDBRANCH  22  23
ENDBRANCH  21  22
ENDBRANCH  19  21
ENDBRANCH   3  15
TORSDOF 7
ENDMDL
MODEL 4
REMARK VINA RESULT:    -4.307      2.304      4.760
REMARK INTER + INTRA:          -6.590
REMARK INTER:                  -5.683
REMARK INTRA:                  -0.907
REMARK UNBOUND:                -0.646
REMARK  Name = 
REMARK  7 active torsions:
REMARK  status: ('A' for Active; 'I' for Inactive)
REMARK    1  A    between atoms: C_2  and  O_3
REMARK    2  A    between atoms: C_2  and  C_4
REMARK    3  A    between atoms: C_9  and  C_10
REMARK    4  A    between atoms: N_12  and  C_13
REMARK    5  A    between atoms: C_17  and  O_19
REMARK    6  A    between atoms: O_19  and  C_20
REMARK    7  A    between atoms: C_20  and  C_21
REMARK                            x       y       z     vdW  Elec       q    Type
REMARK                         _______ _______ _______ _____ _____    ______ ____
ROOT
ATOM      1  C   UNL     1     -31.302 -10.993  15.931  0.00  0.00    +0.221 C 
ATOM      2  O   UNL     1     -30.796  -9.919  16.359  0.00  0.00    -0.275 OA
ATOM      3  N   UNL     1     -30.910 -12.256  16.496  0.00  0.00    -0.285 N 
ATOM      4  H   UNL     1     -31.117 -13.119  15.943  0.00  0.00    +0.155 HD
ENDROOT
BRANCH   1  10
ATOM      5  C   UNL     1     -33.606 -10.340  15.112  0.00  0.00    +0.113 C 
ATOM      6  C   UNL     1     -34.487 -10.222  13.850  0.00  0.00    +0.042 C 
ATOM      7  C   UNL     1     -34.467 -11.464  12.990  0.00  0.00    -0.030 C 
ATOM      8  C   UNL     1     -33.481 -12.376  13.047  0.00  0.00    -0.030 C 
ATOM      9  C   UNL     1     -32.413 -12.360  14.113  0.00  0.00    +0.040 C 
ATOM     10  C   UNL     1     -32.240 -10.964  14.745  0.00  0.00    +0.093 C 
BRANCH   5  12
ATOM     11  O   UNL     1     -34.807 -12.230  16.016  0.00  0.00    -0.251 OA
ATOM     12  C   UNL     1     -34.311 -11.088  16.221  0.00  0.00    +0.309 C 
BRANCH  12  13
ATOM     13  O   UNL     1     -34.369 -10.531  17.494  0.00  0.00    -0.480 OA
ATOM     14  H   UNL     1     -34.445  -9.529  17.620  0.00  0.00    +0.295 HD
ENDBRANCH  12  13
ENDBRANCH   5  12
ENDBRANCH   1  10
BRANCH   3  15
ATOM     15  C   UNL     1     -30.123 -12.395  17.690  0.00  0.00    +0.037 A 
ATOM     16  C   UNL     1     -28.773 -12.757  17.584  0.00  0.00    +0.023 A 
ATOM     17  C   UNL     1     -27.988 -12.906  18.729  0.00  0.00    +0.005 A 
ATOM     18  C   UNL     1     -28.546 -12.709  19.995  0.00  0.00    +0.046 A 
ATOM     19  C   UNL     1     -29.906 -12.370  20.122  0.00  0.00    +0.123 A 
ATOM     20  C   UNL     1     -30.688 -12.226  18.968  0.00  0.00    +0.069 A 
BRANCH  19  21
ATOM     21  O   UNL     1     -30.517 -12.168  21.368  0.00  0.00    -0.487 OA
BRANCH  21  22
ATOM     22  C   UNL     1     -30.542 -10.924  22.062  0.00  0.00    +0.266 C 
BRANCH  22  23
ATOM     23  C   UNL     1     -31.764 -10.156  21.655  0.00  0.00    +0.008 A 
ATOM     24  C   UNL     1     -33.049 -10.655  21.913  0.00  0.00    +0.010 A 
ATOM     25  C   UNL     1     -34.173  -9.936  21.500  0.00  0.00    +0.020 A 
ATOM     26  C   UNL     1     -34.001  -8.728  20.822  0.00  0.00    +0.111 A 
ATOM     27  N   UNL     1     -32.748  -8.264  20.563  0.00  0.00    -0.263 NA
ATOM     28  C   UNL     1     -31.639  -8.944  20.959  0.00  0.00    +0.117 A 
ENDBRANCH  22  23
ENDBRANCH  21  22
ENDBRANCH  19  21
ENDBRANCH   3  15
TORSDOF 7
ENDMDL
MODEL 5
REMARK VINA RESULT:    -4.281      3.465      6.775
REMARK INTER + INTRA:          -6.555
REMARK INTER:                  -5.605
REMARK INTRA:                  -0.950
REMARK UNBOUND:                -0.646
REMARK  Name = 
REMARK  7 active torsions:
REMARK  status: ('A' for Active; 'I' for Inactive)
REMARK    1  A    between atoms: C_2  and  O_3
REMARK    2  A    between atoms: C_2  and  C_4
REMARK    3  A    between atoms: C_9  and  C_10
REMARK    4  A    between atoms: N_12  and  C_13
REMARK    5  A    between atoms: C_17  and  O_19
REMARK    6  A    between atoms: O_19  and  C_20
REMARK    7  A    between atoms: C_20  and  C_21
REMARK                            x       y       z     vdW  Elec       q    Type
REMARK                         _______ _______ _______ _____ _____    ______ ____
ROOT
ATOM      1  C   UNL     1     -33.787  -8.856  18.310  0.00  0.00    +0.221 C 
ATOM      2  O   UNL     1     -34.566  -9.827  18.517  0.00  0.00    -0.275 OA
ATOM      3  N   UNL     1     -33.232  -8.637  17.003  0.00  0.00    -0.285 N 
ATOM      4  H   UNL     1     -32.389  -8.022  16.931  0.00  0.00    +0.155 HD
ENDROOT
BRANCH   1  10
ATOM      5  C   UNL     1     -31.844  -7.630  19.373  0.00  0.00    +0.113 C 
ATOM      6  C   UNL     1     -31.467  -6.646  20.500  0.00  0.00    +0.042 C 
ATOM      7  C   UNL     1     -32.040  -7.029  21.845  0.00  0.00    -0.030 C 
ATOM      8  C   UNL     1     -33.102  -7.841  21.981  0.00  0.00    -0.030 C 
ATOM      9  C   UNL     1     -33.694  -8.613  20.828  0.00  0.00    +0.040 C 
ATOM     10  C   UNL     1     -33.348  -7.983  19.464  0.00  0.00    +0.093 C 
BRANCH   5  12
ATOM     11  O   UNL     1     -30.970  -9.663  18.408  0.00  0.00    -0.251 OA
ATOM     12  C   UNL     1     -30.957  -8.853  19.375  0.00  0.00    +0.309 C 
BRANCH  12  13
ATOM     13  O   UNL     1     -30.081  -9.062  20.435  0.00  0.00    -0.480 OA
ATOM     14  H   UNL     1     -29.080  -8.967  20.310  0.00  0.00    +0.295 HD
ENDBRANCH  12  13
ENDBRANCH   5  12
ENDBRANCH   1  10
BRANCH   3  15
ATOM     15  C   UNL     1     -33.664  -9.326  15.817  0.00  0.00    +0.037 A 
ATOM     16  C   UNL     1     -34.621  -8.728  14.986  0.00  0.00    +0.023 A 
ATOM     17  C   UNL     1     -35.062  -9.380  13.833  0.00  0.00    +0.005 A 
ATOM     18  C   UNL     1     -34.563 -10.642  13.503  0.00  0.00    +0.046 A 
ATOM     19  C   UNL     1     -33.620 -11.269  14.339  0.00  0.00    +0.123 A 
ATOM     20  C   UNL     1     -33.186 -10.611  15.497  0.00  0.00    +0.069 A 
BRANCH  19  21
ATOM     21  O   UNL     1     -33.094 -12.538  14.059  0.00  0.00    -0.487 OA
BRANCH  21  22
ATOM     22  C   UNL     1     -32.175 -12.815  13.006  0.00  0.00    +0.266 C 
BRANCH  22  23
ATOM     23  C   UNL     1     -31.032 -13.621  13.548  0.00  0.00    +0.008 A 
ATOM     24  C   UNL     1     -30.936 -13.908  14.917  0.00  0.00    +0.010 A 
ATOM     25  C   UNL     1     -29.848 -14.636  15.403  0.00  0.00    +0.020 A 
ATOM     26  C   UNL     1     -28.859 -15.062  14.515  0.00  0.00    +0.111 A 
ATOM     27  N   UNL     1     -28.956 -14.762  13.191  0.00  0.00    -0.263 NA
ATOM     28  C   UNL     1     -30.007 -14.057  12.694  0.00  0.00    +0.117 A 
ENDBRANCH  22  23
ENDBRANCH  21  22
ENDBRANCH  19  21
ENDBRANCH   3  15
TORSDOF 7
ENDMDL
MODEL 6
REMARK VINA RESULT:    -4.269      3.656      6.865
REMARK INTER + INTRA:          -6.538
REMARK INTER:                  -5.804
REMARK INTRA:                  -0.734
REMARK UNBOUND:                -0.646
REMARK  Name = 
REMARK  7 active torsions:
REMARK  status: ('A' for Active; 'I' for Inactive)
REMARK    1  A    between atoms: C_2  and  O_3
REMARK    2  A    between atoms: C_2  and  C_4
REMARK    3  A    between atoms: C_9  and  C_10
REMARK    4  A    between atoms: N_12  and  C_13
REMARK    5  A    between atoms: C_17  and  O_19
REMARK    6  A    between atoms: O_19  and  C_20
REMARK    7  A    between atoms: C_20  and  C_21
REMARK                            x       y       z     vdW  Elec       q    Type
REMARK                         _______ _______ _______ _____ _____    ______ ____
ROOT
ATOM      1  C   UNL     1     -33.293  -8.299  18.866  0.00  0.00    +0.221 C 
ATOM      2  O   UNL     1     -33.889  -9.339  19.262  0.00  0.00    -0.275 OA
ATOM      3  N   UNL     1     -32.542  -8.316  17.640  0.00  0.00    -0.285 N 
ATOM      4  H   UNL     1     -31.841  -7.555  17.491  0.00  0.00    +0.155 HD
ENDROOT
BRANCH   1  10
ATOM      5  C   UNL     1     -31.828  -6.604  20.044  0.00  0.00    +0.113 C 
ATOM      6  C   UNL     1     -31.855  -5.278  20.834  0.00  0.00    +0.042 C 
ATOM      7  C   UNL     1     -32.869  -5.270  21.953  0.00  0.00    -0.030 C 
ATOM      8  C   UNL     1     -33.924  -6.102  21.989  0.00  0.00    -0.030 C 
ATOM      9  C   UNL     1     -34.085  -7.259  21.033  0.00  0.00    +0.040 C 
ATOM     10  C   UNL     1     -33.273  -7.064  19.737  0.00  0.00    +0.093 C 
BRANCH   5  12
ATOM     11  O   UNL     1     -31.320  -8.038  21.919  0.00  0.00    -0.251 OA
ATOM     12  C   UNL     1     -31.017  -7.664  20.753  0.00  0.00    +0.309 C 
BRANCH  12  13
ATOM     13  O   UNL     1     -29.952  -8.267  20.093  0.00  0.00    -0.480 OA
ATOM     14  H   UNL     1     -29.694  -9.227  20.289  0.00  0.00    +0.295 HD
ENDBRANCH  12  13
ENDBRANCH   5  12
ENDBRANCH   1  10
BRANCH   3  15
ATOM     15  C   UNL     1     -32.585  -9.388  16.683  0.00  0.00    +0.037 A 
ATOM     16  C   UNL     1     -33.541  -9.354  15.658  0.00  0.00    +0.023 A 
ATOM     17  C   UNL     1     -33.607 -10.387  14.720  0.00  0.00    +0.005 A 
ATOM     18  C   UNL     1     -32.730 -11.471  14.803  0.00  0.00    +0.046 A 
ATOM     19  C   UNL     1     -31.781 -11.534  15.841  0.00  0.00    +0.123 A 
ATOM     20  C   UNL     1     -31.723 -10.496  16.780  0.00  0.00    +0.069 A 
BRANCH  19  21
ATOM     21  O   UNL     1     -30.883 -12.603  15.974  0.00  0.00    -0.487 OA
BRANCH  21  22
ATOM     22  C   UNL     1     -31.119 -13.919  15.483  0.00  0.00    +0.266 C 
BRANCH  22  23
ATOM     23  C   UNL     1     -30.025 -14.294  14.529  0.00  0.00    +0.008 A 
ATOM     24  C   UNL     1     -30.250 -14.314  13.145  0.00  0.00    +0.010 A 
ATOM     25  C   UNL     1     -29.224 -14.693  12.277  0.00  0.00    +0.020 A 
ATOM     26  C   UNL     1     -27.984 -15.061  12.802  0.00  0.00    +0.111 A 
ATOM     27  N   UNL     1     -27.785 -15.053  14.148  0.00  0.00    -0.263 NA
ATOM     28  C   UNL     1     -28.767 -14.684  15.013  0.00  0.00    +0.117 A 
ENDBRANCH  22  23
ENDBRANCH  21  22
ENDBRANCH  19  21
ENDBRANCH   3  15
TORSDOF 7
ENDMDL
MODEL 7
REMARK VINA RESULT:    -4.261      2.920      6.759
REMARK INTER + INTRA:          -6.527
REMARK INTER:                  -5.537
REMARK INTRA:                  -0.989
REMARK UNBOUND:                -0.646
REMARK  Name = 
REMARK  7 active torsions:
REMARK  status: ('A' for Active; 'I' for Inactive)
REMARK    1  A    between atoms: C_2  and  O_3
REMARK    2  A    between atoms: C_2  and  C_4
REMARK    3  A    between atoms: C_9  and  C_10
REMARK    4  A    between atoms: N_12  and  C_13
REMARK    5  A    between atoms: C_17  and  O_19
REMARK    6  A    between atoms: O_19  and  C_20
REMARK    7  A    between atoms: C_20  and  C_21
REMARK                            x       y       z     vdW  Elec       q    Type
REMARK                         _______ _______ _______ _____ _____    ______ ____
ROOT
ATOM      1  C   UNL     1     -32.591 -11.102  17.781  0.00  0.00    +0.221 C 
ATOM      2  O   UNL     1     -32.901 -12.325  17.740  0.00  0.00    -0.275 OA
ATOM      3  N   UNL     1     -32.520 -10.331  16.570  0.00  0.00    -0.285 N 
ATOM      4  H   UNL     1     -31.994  -9.428  16.601  0.00  0.00    +0.155 HD
ENDROOT
BRANCH   1  10
ATOM      5  C   UNL     1     -30.996  -9.500  18.918  0.00  0.00    +0.113 C 
ATOM      6  C   UNL     1     -30.693  -8.791  20.255  0.00  0.00    +0.042 C 
ATOM      7  C   UNL     1     -30.695  -9.727  21.441  0.00  0.00    -0.030 C 
ATOM      8  C   UNL     1     -31.317 -10.918  21.430  0.00  0.00    -0.030 C 
ATOM      9  C   UNL     1     -31.893 -11.528  20.176  0.00  0.00    +0.040 C 
ATOM     10  C   UNL     1     -32.187 -10.471  19.093  0.00  0.00    +0.093 C 
BRANCH   5  12
ATOM     11  O   UNL     1     -29.612 -10.297  17.106  0.00  0.00    -0.251 OA
ATOM     12  C   UNL     1     -29.769 -10.179  18.352  0.00  0.00    +0.309 C 
BRANCH  12  13
ATOM     13  O   UNL     1     -28.780 -10.636  19.216  0.00  0.00    -0.480 OA
ATOM     14  H   UNL     1     -28.741 -11.609  19.495  0.00  0.00    +0.295 HD
ENDBRANCH  12  13
ENDBRANCH   5  12
ENDBRANCH   1  10
BRANCH   3  15
ATOM     15  C   UNL     1     -32.989 -10.792  15.292  0.00  0.00    +0.037 A 
ATOM     16  C   UNL     1     -34.333 -10.595  14.942  0.00  0.00    +0.023 A 
ATOM     17  C   UNL     1     -34.815 -11.040  13.710  0.00  0.00    +0.005 A 
ATOM     18  C   UNL     1     -33.965 -11.697  12.817  0.00  0.00    +0.046 A 
ATOM     19  C   UNL     1     -32.620 -11.926  13.161  0.00  0.00    +0.123 A 
ATOM     20  C   UNL     1     -32.144 -11.481  14.401  0.00  0.00    +0.069 A 
BRANCH  19  21
ATOM     21  O   UNL     1     -31.727 -12.588  12.305  0.00  0.00    -0.487 OA
BRANCH  21  22
ATOM     22  C   UNL     1     -31.580 -14.003  12.233  0.00  0.00    +0.266 C 
BRANCH  22  23
ATOM     23  C   UNL     1     -30.287 -14.398  12.883  0.00  0.00    +0.008 A 
ATOM     24  C   UNL     1     -30.235 -14.724  14.246  0.00  0.00    +0.010 A 
ATOM     25  C   UNL     1     -29.015 -15.062  14.836  0.00  0.00    +0.020 A 
ATOM     26  C   UNL     1     -27.855 -15.061  14.059  0.00  0.00    +0.111 A 
ATOM     27  N   UNL     1     -27.918 -14.726  12.742  0.00  0.00    -0.263 NA
ATOM     28  C   UNL     1     -29.094 -14.396  12.144  0.00  0.00    +0.117 A 
ENDBRANCH  22  23
ENDBRANCH  21  22
ENDBRANCH  19  21
ENDBRANCH   3  15
TORSDOF 7
ENDMDL
MODEL 8
REMARK VINA RESULT:    -4.242      2.641      5.903
REMARK INTER + INTRA:          -6.501
REMARK INTER:                  -6.273
REMARK INTRA:                  -0.228
REMARK UNBOUND:                -0.646
REMARK  Name = 
REMARK  7 active torsions:
REMARK  status: ('A' for Active; 'I' for Inactive)
REMARK    1  A    between atoms: C_2  and  O_3
REMARK    2  A    between atoms: C_2  and  C_4
REMARK    3  A    between atoms: C_9  and  C_10
REMARK    4  A    between atoms: N_12  and  C_13
REMARK    5  A    between atoms: C_17  and  O_19
REMARK    6  A    between atoms: O_19  and  C_20
REMARK    7  A    between atoms: C_20  and  C_21
REMARK                            x       y       z     vdW  Elec       q    Type
REMARK                         _______ _______ _______ _____ _____    ______ ____
ROOT
ATOM      1  C   UNL     1     -32.331  -9.960  15.854  0.00  0.00    +0.221 C 
ATOM      2  O   UNL     1     -31.112 -10.066  15.546  0.00  0.00    -0.275 OA
ATOM      3  N   UNL     1     -33.341 -10.584  15.044  0.00  0.00    -0.285 N 
ATOM      4  H   UNL     1     -34.325 -10.247  15.150  0.00  0.00    +0.155 HD
ENDROOT
BRANCH   1  10
ATOM      5  C   UNL     1     -32.370  -9.721  18.373  0.00  0.00    +0.113 C 
ATOM      6  C   UNL     1     -32.699  -8.742  19.521  0.00  0.00    +0.042 C 
ATOM      7  C   UNL     1     -34.051  -8.084  19.376  0.00  0.00    -0.030 C 
ATOM      8  C   UNL     1     -34.696  -7.992  18.201  0.00  0.00    -0.030 C 
ATOM      9  C   UNL     1     -34.238  -8.714  16.958  0.00  0.00    +0.040 C 
ATOM     10  C   UNL     1     -32.741  -9.082  17.014  0.00  0.00    +0.093 C 
BRANCH   5  12
ATOM     11  O   UNL     1     -33.460 -11.733  17.602  0.00  0.00    -0.251 OA
ATOM     12  C   UNL     1     -33.021 -11.069  18.581  0.00  0.00    +0.309 C 
BRANCH  12  13
ATOM     13  O   UNL     1     -33.093 -11.604  19.862  0.00  0.00    -0.480 OA
ATOM     14  H   UNL     1     -33.463 -11.061  20.633  0.00  0.00    +0.295 HD
ENDBRANCH  12  13
ENDBRANCH   5  12
ENDBRANCH   1  10
BRANCH   3  15
ATOM     15  C   UNL     1     -33.064 -11.528  13.995  0.00  0.00    +0.037 A 
ATOM     16  C   UNL     1     -34.011 -11.724  12.980  0.00  0.00    +0.023 A 
ATOM     17  C   UNL     1     -33.770 -12.640  11.954  0.00  0.00    +0.005 A 
ATOM     18  C   UNL     1     -32.586 -13.381  11.938  0.00  0.00    +0.046 A 
ATOM     19  C   UNL     1     -31.635 -13.216  12.962  0.00  0.00    +0.123 A 
ATOM     20  C   UNL     1     -31.887 -12.299  13.990  0.00  0.00    +0.069 A 
BRANCH  19  21
ATOM     21  O   UNL     1     -30.434 -13.941  12.997  0.00  0.00    -0.487 OA
BRANCH  21  22
ATOM     22  C   UNL     1     -30.194 -15.062  13.842  0.00  0.00    +0.266 C 
BRANCH  22  23
ATOM     23  C   UNL     1     -29.946 -14.582  15.241  0.00  0.00    +0.008 A 
ATOM     24  C   UNL     1     -30.965 -14.610  16.204  0.00  0.00    +0.010 A 
ATOM     25  C   UNL     1     -30.719 -14.132  17.493  0.00  0.00    +0.020 A 
ATOM     26  C   UNL     1     -29.459 -13.620  17.805  0.00  0.00    +0.111 A 
ATOM     27  N   UNL     1     -28.485 -13.583  16.855  0.00  0.00    -0.263 NA
ATOM     28  C   UNL     1     -28.699 -14.046  15.594  0.00  0.00    +0.117 A 
ENDBRANCH  22  23
ENDBRANCH  21  22
ENDBRANCH  19  21
ENDBRANCH   3  15
TORSDOF 7
ENDMDL
