MODEL 1
REMARK VINA RESULT:    -4.321      0.000      0.000
REMARK INTER + INTRA:          -7.810
REMARK INTER:                  -5.962
REMARK INTRA:                  -1.848
REMARK UNBOUND:                -1.848
REMARK  Name = 
REMARK  8 active torsions:
REMARK  status: ('A' for Active; 'I' for Inactive)
REMARK    1  A    between atoms: C_1  and  C_2
REMARK    2  A    between atoms: C_2  and  C_4
REMARK    3  A    between atoms: C_7  and  N_10
REMARK    4  A    between atoms: C_11  and  C_13
REMARK    5  A    between atoms: C_13  and  C_14
REMARK    6  A    between atoms: C_14  and  C_15
REMARK    7  A    between atoms: C_14  and  C_18
REMARK    8  A    between atoms: C_15  and  O_17
REMARK                            x       y       z     vdW  Elec       q    Type
REMARK                         _______ _______ _______ _____ _____    ______ ____
ROOT
ATOM      1  N   UNL     1     -32.341 -10.784  16.585  0.00  0.00    -0.285 N 
ATOM      2  C   UNL     1     -31.610  -9.638  17.048  0.00  0.00    +0.218 C 
ATOM      3  O   UNL     1     -30.716  -9.116  16.329  0.00  0.00    -0.275 OA
ATOM      4  H   UNL     1     -33.295 -10.946  16.981  0.00  0.00    +0.155 HD
ENDROOT
BRANCH   1   8
ATOM      5  C   UNL     1     -30.723 -13.561  13.782  0.00  0.00    +0.017 A 
ATOM      6  C   UNL     1     -30.335 -13.585  15.136  0.00  0.00    +0.013 A 
ATOM      7  C   UNL     1     -30.879 -12.674  16.047  0.00  0.00    +0.024 A 
ATOM      8  C   UNL     1     -31.831 -11.734  15.634  0.00  0.00    +0.033 A 
ATOM      9  C   UNL     1     -32.208 -11.694  14.281  0.00  0.00    +0.024 A 
ATOM     10  C   UNL     1     -31.664 -12.600  13.368  0.00  0.00    +0.013 A 
BRANCH   5  12
ATOM     11  C   UNL     1     -28.696 -14.874  12.787  0.00  0.00    +0.091 C 
ATOM     12  C   UNL     1     -30.153 -14.519  12.797  0.00  0.00    +0.160 C 
ATOM     13  O   UNL     1     -30.905 -15.056  11.938  0.00  0.00    -0.292 OA
ENDBRANCH   5  12
ENDBRANCH   1   8
BRANCH   2  14
ATOM     14  C   UNL     1     -31.887  -9.075  18.412  0.00  0.00    +0.115 C 
BRANCH  14  15
ATOM     15  C   UNL     1     -30.647  -9.196  19.322  0.00  0.00    +0.136 C 
BRANCH  15  16
ATOM     16  C   UNL     1     -30.116 -10.618  19.366  0.00  0.00    -0.033 A 
ATOM     17  C   UNL     1     -28.838 -10.933  18.863  0.00  0.00    +0.004 A 
ATOM     18  C   UNL     1     -28.338 -12.234  18.967  0.00  0.00    +0.000 A 
ATOM     19  C   UNL     1     -29.103 -13.232  19.576  0.00  0.00    +0.000 A 
ATOM     20  C   UNL     1     -30.370 -12.931  20.079  0.00  0.00    +0.000 A 
ATOM     21  C   UNL     1     -30.876 -11.633  19.976  0.00  0.00    +0.004 A 
ENDBRANCH  15  16
BRANCH  15  22
ATOM     22  C   UNL     1     -30.938  -8.703  20.715  0.00  0.00    +0.313 C 
ATOM     23  O   UNL     1     -32.099  -8.312  21.009  0.00  0.00    -0.250 OA
BRANCH  22  24
ATOM     24  O   UNL     1     -29.924  -8.630  21.667  0.00  0.00    -0.480 OA
ATOM     25  H   UNL     1     -29.352  -7.799  21.756  0.00  0.00    +0.295 HD
ENDBRANCH  22  24
ENDBRANCH  15  22
ENDBRANCH  14  15
ENDBRANCH   2  14
TORSDOF 7
ENDMDL
MODEL 2
REMARK VINA RESULT:    -4.298      2.484      3.802
REMARK INTER + INTRA:          -7.780
REMARK INTER:                  -7.163
REMARK INTRA:                  -0.616
REMARK UNBOUND:                -1.848
REMARK  Name = 
REMARK  8 active torsions:
REMARK  status: ('A' for Active; 'I' for Inactive)
REMARK    1  A    between atoms: C_1  and  C_2
REMARK    2  A    between atoms: C_2  and  C_4
REMARK    3  A    between atoms: C_7  and  N_10
REMARK    4  A    between atoms: C_11  and  C_13
REMARK    5  A    between atoms: C_13  and  C_14
REMARK    6  A    between atoms: C_14  and  C_15
REMARK    7  A    between atoms: C_14  and  C_18
REMARK    8  A    between atoms: C_15  and  O_17
REMARK                            x       y       z     vdW  Elec       q    Type
REMARK                         _______ _______ _______ _____ _____    ______ ____
ROOT
ATOM      1  N   UNL     1     -29.826 -14.309  18.251  0.00  0.00    -0.285 N 
ATOM      2  C   UNL     1     -30.407 -13.610  19.362  0.00  0.00    +0.218 C 
ATOM      3  O   UNL     1     -31.616 -13.252  19.332  0.00  0.00    -0.275 OA
ATOM      4  H   UNL     1     -29.001 -14.923  18.440  0.00  0.00    +0.155 HD
ENDROOT
BRANCH   1   8
ATOM      5  C   UNL     1     -31.118 -13.911  14.206  0.00  0.00    +0.017 A 
ATOM      6  C   UNL     1     -29.880 -14.505  14.519  0.00  0.00    +0.013 A 
ATOM      7  C   UNL     1     -29.471 -14.638  15.850  0.00  0.00    +0.024 A 
ATOM      8  C   UNL     1     -30.292 -14.197  16.896  0.00  0.00    +0.033 A 
ATOM      9  C   UNL     1     -31.520 -13.587  16.588  0.00  0.00    +0.024 A 
ATOM     10  C   UNL     1     -31.929 -13.451  15.260  0.00  0.00    +0.013 A 
BRANCH   5  12
ATOM     11  C   UNL     1     -32.405 -12.596  12.353  0.00  0.00    +0.091 C 
ATOM     12  C   UNL     1     -31.568 -13.758  12.796  0.00  0.00    +0.160 C 
ATOM     13  O   UNL     1     -31.244 -14.624  11.938  0.00  0.00    -0.292 OA
ENDBRANCH   5  12
ENDBRANCH   1   8
BRANCH   2  14
ATOM     14  C   UNL     1     -29.563 -13.269  20.556  0.00  0.00    +0.115 C 
BRANCH  14  15
ATOM     15  C   UNL     1     -28.646 -12.064  20.259  0.00  0.00    +0.136 C 
BRANCH  15  16
ATOM     16  C   UNL     1     -29.390 -10.953  19.541  0.00  0.00    -0.033 A 
ATOM     17  C   UNL     1     -29.319 -10.817  18.140  0.00  0.00    +0.004 A 
ATOM     18  C   UNL     1     -30.059  -9.827  17.488  0.00  0.00    +0.000 A 
ATOM     19  C   UNL     1     -30.879  -8.966  18.221  0.00  0.00    +0.000 A 
ATOM     20  C   UNL     1     -30.958  -9.092  19.610  0.00  0.00    +0.000 A 
ATOM     21  C   UNL     1     -30.219 -10.078  20.268  0.00  0.00    +0.004 A 
ENDBRANCH  15  16
BRANCH  15  22
ATOM     22  C   UNL     1     -27.435 -12.479  19.465  0.00  0.00    +0.313 C 
ATOM     23  O   UNL     1     -26.611 -11.606  19.081  0.00  0.00    -0.250 OA
BRANCH  22  24
ATOM     24  O   UNL     1     -27.241 -13.812  19.111  0.00  0.00    -0.480 OA
ATOM     25  H   UNL     1     -27.223 -14.094  18.139  0.00  0.00    +0.295 HD
ENDBRANCH  22  24
ENDBRANCH  15  22
ENDBRANCH  14  15
ENDBRANCH   2  14
TORSDOF 7
ENDMDL
MODEL 3
REMARK VINA RESULT:    -4.276      2.783      4.799
REMARK INTER + INTRA:          -7.749
REMARK INTER:                  -6.152
REMARK INTRA:                  -1.597
REMARK UNBOUND:                -1.848
REMARK  Name = 
REMARK  8 active torsions:
REMARK  status: ('A' for Active; 'I' for Inactive)
REMARK    1  A    between atoms: C_1  and  C_2
REMARK    2  A    between atoms: C_2  and  C_4
REMARK    3  A    between atoms: C_7  and  N_10
REMARK    4  A    between atoms: C_11  and  C_13
REMARK    5  A    between atoms: C_13  and  C_14
REMARK    6  A    between atoms: C_14  and  C_15
REMARK    7  A    between atoms: C_14  and  C_18
REMARK    8  A    between atoms: C_15  and  O_17
REMARK                            x       y       z     vdW  Elec       q    Type
REMARK                         _______ _______ _______ _____ _____    ______ ____
ROOT
ATOM      1  N   UNL     1     -31.318 -10.279  18.629  0.00  0.00    -0.285 N 
ATOM      2  C   UNL     1     -29.888 -10.377  18.542  0.00  0.00    +0.218 C 
ATOM      3  O   UNL     1     -29.264  -9.807  17.607  0.00  0.00    -0.275 OA
ATOM      4  H   UNL     1     -31.758 -10.398  19.570  0.00  0.00    +0.155 HD
ENDROOT
BRANCH   1   8
ATOM      5  C   UNL     1     -33.784  -9.584  15.220  0.00  0.00    +0.017 A 
ATOM      6  C   UNL     1     -32.769 -10.560  15.196  0.00  0.00    +0.013 A 
ATOM      7  C   UNL     1     -31.973 -10.785  16.324  0.00  0.00    +0.024 A 
ATOM      8  C   UNL     1     -32.180 -10.055  17.500  0.00  0.00    +0.033 A 
ATOM      9  C   UNL     1     -33.179  -9.068  17.524  0.00  0.00    +0.024 A 
ATOM     10  C   UNL     1     -33.974  -8.839  16.398  0.00  0.00    +0.013 A 
BRANCH   5  12
ATOM     11  C   UNL     1     -35.062 -10.430  13.105  0.00  0.00    +0.091 C 
ATOM     12  C   UNL     1     -34.639  -9.328  14.029  0.00  0.00    +0.160 C 
ATOM     13  O   UNL     1     -35.025  -8.154  13.777  0.00  0.00    -0.292 OA
ENDBRANCH   5  12
ENDBRANCH   1   8
BRANCH   2  14
ATOM     14  C   UNL     1     -29.131 -11.192  19.550  0.00  0.00    +0.115 C 
BRANCH  14  15
ATOM     15  C   UNL     1     -28.359 -12.340  18.866  0.00  0.00    +0.136 C 
BRANCH  15  16
ATOM     16  C   UNL     1     -29.262 -13.178  17.980  0.00  0.00    -0.033 A 
ATOM     17  C   UNL     1     -30.475 -13.704  18.470  0.00  0.00    +0.004 A 
ATOM     18  C   UNL     1     -31.326 -14.421  17.625  0.00  0.00    +0.000 A 
ATOM     19  C   UNL     1     -30.982 -14.620  16.286  0.00  0.00    +0.000 A 
ATOM     20  C   UNL     1     -29.783 -14.103  15.790  0.00  0.00    +0.000 A 
ATOM     21  C   UNL     1     -28.927 -13.387  16.630  0.00  0.00    +0.004 A 
ENDBRANCH  15  16
BRANCH  15  22
ATOM     22  C   UNL     1     -27.663 -13.212  19.877  0.00  0.00    +0.313 C 
ATOM     23  O   UNL     1     -27.745 -12.934  21.104  0.00  0.00    -0.250 OA
BRANCH  22  24
ATOM     24  O   UNL     1     -26.889 -14.295  19.466  0.00  0.00    -0.480 OA
ATOM     25  H   UNL     1     -26.259 -14.214  18.677  0.00  0.00    +0.295 HD
ENDBRANCH  22  24
ENDBRANCH  15  22
ENDBRANCH  14  15
ENDBRANCH   2  14
TORSDOF 7
ENDMDL
MODEL 4
REMARK VINA RESULT:    -4.234      2.517      5.791
REMARK INTER + INTRA:          -7.690
REMARK INTER:                  -6.384
REMARK INTRA:                  -1.306
REMARK UNBOUND:                -1.848
REMARK  Name = 
REMARK  8 active torsions:
REMARK  status: ('A' for Active; 'I' for Inactive)
REMARK    1  A    between atoms: C_1  and  C_2
REMARK    2  A    between atoms: C_2  and  C_4
REMARK    3  A    between atoms: C_7  and  N_10
REMARK    4  A    between atoms: C_11  and  C_13
REMARK    5  A    between atoms: C_13  and  C_14
REMARK    6  A    between atoms: C_14  and  C_15
REMARK    7  A    between atoms: C_14  and  C_18
REMARK    8  A    between atoms: C_15  and  O_17
REMARK                            x       y       z     vdW  Elec       q    Type
REMARK                         _______ _______ _______ _____ _____    ______ ____
ROOT
ATOM      1  N   UNL     1     -30.007 -10.309  18.120  0.00  0.00    -0.285 N 
ATOM      2  C   UNL     1     -31.404 -10.032  18.301  0.00  0.00    +0.218 C 
ATOM      3  O   UNL     1     -31.954 -10.223  19.419  0.00  0.00    -0.275 OA
ATOM      4  H   UNL     1     -29.503  -9.794  17.362  0.00  0.00    +0.155 HD
ENDROOT
BRANCH   1   8
ATOM      5  C   UNL     1     -27.801 -13.215  20.328  0.00  0.00    +0.017 A 
ATOM      6  C   UNL     1     -27.219 -12.529  19.244  0.00  0.00    +0.013 A 
ATOM      7  C   UNL     1     -27.950 -11.572  18.533  0.00  0.00    +0.024 A 
ATOM      8  C   UNL     1     -29.268 -11.267  18.896  0.00  0.00    +0.033 A 
ATOM      9  C   UNL     1     -29.859 -11.961  19.964  0.00  0.00    +0.024 A 
ATOM     10  C   UNL     1     -29.133 -12.919  20.675  0.00  0.00    +0.013 A 
BRANCH   5  12
ATOM     11  C   UNL     1     -25.547 -14.331  21.029  0.00  0.00    +0.091 C 
ATOM     12  C   UNL     1     -27.041 -14.239  21.094  0.00  0.00    +0.160 C 
ATOM     13  O   UNL     1     -27.660 -15.062  21.824  0.00  0.00    -0.292 OA
ENDBRANCH   5  12
ENDBRANCH   1   8
BRANCH   2  14
ATOM     14  C   UNL     1     -32.226  -9.545  17.144  0.00  0.00    +0.115 C 
BRANCH  14  15
ATOM     15  C   UNL     1     -33.101 -10.680  16.570  0.00  0.00    +0.136 C 
BRANCH  15  16
ATOM     16  C   UNL     1     -32.298 -11.947  16.337  0.00  0.00    -0.033 A 
ATOM     17  C   UNL     1     -31.348 -12.025  15.298  0.00  0.00    +0.004 A 
ATOM     18  C   UNL     1     -30.572 -13.176  15.134  0.00  0.00    +0.000 A 
ATOM     19  C   UNL     1     -30.731 -14.257  16.003  0.00  0.00    +0.000 A 
ATOM     20  C   UNL     1     -31.667 -14.191  17.037  0.00  0.00    +0.000 A 
ATOM     21  C   UNL     1     -32.448 -13.045  17.204  0.00  0.00    +0.004 A 
ENDBRANCH  15  16
BRANCH  15  22
ATOM     22  C   UNL     1     -33.787 -10.255  15.299  0.00  0.00    +0.313 C 
ATOM     23  O   UNL     1     -33.685  -9.063  14.902  0.00  0.00    -0.250 OA
BRANCH  22  24
ATOM     24  O   UNL     1     -34.573 -11.155  14.583  0.00  0.00    -0.480 OA
ATOM     25  H   UNL     1     -34.152 -11.923  14.074  0.00  0.00    +0.295 HD
ENDBRANCH  22  24
ENDBRANCH  15  22
ENDBRANCH  14  15
ENDBRANCH   2  14
TORSDOF 7
ENDMDL
MODEL 5
REMARK VINA RESULT:    -4.226      2.821      6.464
REMARK INTER + INTRA:          -7.680
REMARK INTER:                  -6.987
REMARK INTRA:                  -0.693
REMARK UNBOUND:                -1.848
REMARK  Name = 
REMARK  8 active torsions:
REMARK  status: ('A' for Active; 'I' for Inactive)
REMARK    1  A    between atoms: C_1  and  C_2
REMARK    2  A    between atoms: C_2  and  C_4
REMARK    3  A    between atoms: C_7  and  N_10
REMARK    4  A    between atoms: C_11  and  C_13
REMARK    5  A    between atoms: C_13  and  C_14
REMARK    6  A    between atoms: C_14  and  C_15
REMARK    7  A    between atoms: C_14  and  C_18
REMARK    8  A    between atoms: C_15  and  O_17
REMARK                            x       y       z     vdW  Elec       q    Type
REMARK                         _______ _______ _______ _____ _____    ______ ____
ROOT
ATOM      1  N   UNL     1     -29.968 -10.305  18.085  0.00  0.00    -0.285 N 
ATOM      2  C   UNL     1     -31.319 -10.484  17.633  0.00  0.00    +0.218 C 
ATOM      3  O   UNL     1     -32.126 -11.193  18.292  0.00  0.00    -0.275 OA
ATOM      4  H   UNL     1     -29.462  -9.443  17.778  0.00  0.00    +0.155 HD
ENDROOT
BRANCH   1   8
ATOM      5  C   UNL     1     -27.920 -13.187  20.470  0.00  0.00    +0.017 A 
ATOM      6  C   UNL     1     -27.654 -13.061  19.092  0.00  0.00    +0.013 A 
ATOM      7  C   UNL     1     -28.326 -12.106  18.323  0.00  0.00    +0.024 A 
ATOM      8  C   UNL     1     -29.263 -11.247  18.911  0.00  0.00    +0.033 A 
ATOM      9  C   UNL     1     -29.545 -11.380  20.280  0.00  0.00    +0.024 A 
ATOM     10  C   UNL     1     -28.878 -12.335  21.051  0.00  0.00    +0.013 A 
BRANCH   5  12
ATOM     11  C   UNL     1     -25.727 -14.354  21.275  0.00  0.00    +0.091 C 
ATOM     12  C   UNL     1     -27.218 -14.199  21.304  0.00  0.00    +0.160 C 
ATOM     13  O   UNL     1     -27.884 -14.956  22.062  0.00  0.00    -0.292 OA
ENDBRANCH   5  12
ENDBRANCH   1   8
BRANCH   2  14
ATOM     14  C   UNL     1     -31.767  -9.852  16.347  0.00  0.00    +0.115 C 
BRANCH  14  15
ATOM     15  C   UNL     1     -33.176 -10.341  15.951  0.00  0.00    +0.136 C 
BRANCH  15  16
ATOM     16  C   UNL     1     -33.157 -11.119  14.648  0.00  0.00    -0.033 A 
ATOM     17  C   UNL     1     -31.973 -11.725  14.181  0.00  0.00    +0.004 A 
ATOM     18  C   UNL     1     -31.985 -12.490  13.011  0.00  0.00    +0.000 A 
ATOM     19  C   UNL     1     -33.173 -12.663  12.299  0.00  0.00    +0.000 A 
ATOM     20  C   UNL     1     -34.352 -12.069  12.753  0.00  0.00    +0.000 A 
ATOM     21  C   UNL     1     -34.347 -11.301  13.920  0.00  0.00    +0.004 A 
ENDBRANCH  15  16
BRANCH  15  22
ATOM     22  C   UNL     1     -34.150  -9.196  15.862  0.00  0.00    +0.313 C 
ATOM     23  O   UNL     1     -35.030  -9.053  16.753  0.00  0.00    -0.250 OA
BRANCH  22  24
ATOM     24  O   UNL     1     -34.118  -8.321  14.778  0.00  0.00    -0.480 OA
ATOM     25  H   UNL     1     -33.269  -7.825  14.536  0.00  0.00    +0.295 HD
ENDBRANCH  22  24
ENDBRANCH  15  22
ENDBRANCH  14  15
ENDBRANCH   2  14
TORSDOF 7
ENDMDL
MODEL 6
REMARK VINA RESULT:    -4.041      2.668      3.721
REMARK INTER + INTRA:          -7.425
REMARK INTER:                  -7.100
REMARK INTRA:                  -0.325
REMARK UNBOUND:                -1.848
REMARK  Name = 
REMARK  8 active torsions:
REMARK  status: ('A' for Active; 'I' for Inactive)
REMARK    1  A    between atoms: C_1  and  C_2
REMARK    2  A    between atoms: C_2  and  C_4
REMARK    3  A    between atoms: C_7  and  N_10
REMARK    4  A    between atoms: C_11  and  C_13
REMARK    5  A    between atoms: C_13  and  C_14
REMARK    6  A    between atoms: C_14  and  C_15
REMARK    7  A    between atoms: C_14  and  C_18
REMARK    8  A    between atoms: C_15  and  O_17
REMARK                            x       y       z     vdW  Elec       q    Type
REMARK                         _______ _______ _______ _____ _____    ______ ____
ROOT
ATOM      1  N   UNL     1     -30.748 -10.462  17.672  0.00  0.00    -0.285 N 
ATOM      2  C   UNL     1     -29.498 -10.987  18.146  0.00  0.00    +0.218 C 
ATOM      3  O   UNL     1     -28.658 -11.465  17.337  0.00  0.00    -0.275 OA
ATOM      4  H   UNL     1     -31.228  -9.743  18.260  0.00  0.00    +0.155 HD
ENDROOT
BRANCH   1   8
ATOM      5  C   UNL     1     -32.752 -11.720  14.125  0.00  0.00    +0.017 A 
ATOM      6  C   UNL     1     -33.143 -10.550  14.806  0.00  0.00    +0.013 A 
ATOM      7  C   UNL     1     -32.473 -10.144  15.963  0.00  0.00    +0.024 A 
ATOM      8  C   UNL     1     -31.390 -10.883  16.457  0.00  0.00    +0.033 A 
ATOM      9  C   UNL     1     -31.008 -12.059  15.793  0.00  0.00    +0.024 A 
ATOM     10  C   UNL     1     -31.677 -12.470  14.638  0.00  0.00    +0.013 A 
BRANCH   5  12
ATOM     11  C   UNL     1     -32.836 -13.145  11.938  0.00  0.00    +0.091 C 
ATOM     12  C   UNL     1     -33.456 -12.171  12.894  0.00  0.00    +0.160 C 
ATOM     13  O   UNL     1     -34.608 -11.727  12.633  0.00  0.00    -0.292 OA
ENDBRANCH   5  12
ENDBRANCH   1   8
BRANCH   2  14
ATOM     14  C   UNL     1     -29.202 -11.001  19.617  0.00  0.00    +0.115 C 
BRANCH  14  15
ATOM     15  C   UNL     1     -29.486 -12.391  20.226  0.00  0.00    +0.136 C 
BRANCH  15  16
ATOM     16  C   UNL     1     -28.205 -13.124  20.579  0.00  0.00    -0.033 A 
ATOM     17  C   UNL     1     -27.019 -12.908  19.848  0.00  0.00    +0.004 A 
ATOM     18  C   UNL     1     -25.832 -13.544  20.224  0.00  0.00    +0.000 A 
ATOM     19  C   UNL     1     -25.813 -14.396  21.330  0.00  0.00    +0.000 A 
ATOM     20  C   UNL     1     -26.981 -14.616  22.062  0.00  0.00    +0.000 A 
ATOM     21  C   UNL     1     -28.171 -13.986  21.691  0.00  0.00    +0.004 A 
ENDBRANCH  15  16
BRANCH  15  22
ATOM     22  C   UNL     1     -30.333 -13.230  19.305  0.00  0.00    +0.313 C 
ATOM     23  O   UNL     1     -31.556 -12.963  19.164  0.00  0.00    -0.250 OA
BRANCH  22  24
ATOM     24  O   UNL     1     -29.786 -14.329  18.646  0.00  0.00    -0.480 OA
ATOM     25  H   UNL     1     -29.999 -14.509  17.672  0.00  0.00    +0.295 HD
ENDBRANCH  22  24
ENDBRANCH  15  22
ENDBRANCH  14  15
ENDBRANCH   2  14
TORSDOF 7
ENDMDL
MODEL 7
REMARK VINA RESULT:    -4.025      2.610      6.165
REMARK INTER + INTRA:          -7.402
REMARK INTER:                  -7.305
REMARK INTRA:                  -0.097
REMARK UNBOUND:                -1.848
REMARK  Name = 
REMARK  8 active torsions:
REMARK  status: ('A' for Active; 'I' for Inactive)
REMARK    1  A    between atoms: C_1  and  C_2
REMARK    2  A    between atoms: C_2  and  C_4
REMARK    3  A    between atoms: C_7  and  N_10
REMARK    4  A    between atoms: C_11  and  C_13
REMARK    5  A    between atoms: C_13  and  C_14
REMARK    6  A    between atoms: C_14  and  C_15
REMARK    7  A    between atoms: C_14  and  C_18
REMARK    8  A    between atoms: C_15  and  O_17
REMARK                            x       y       z     vdW  Elec       q    Type
REMARK                         _______ _______ _______ _____ _____    ______ ____
ROOT
ATOM      1  N   UNL     1     -32.337 -11.932  18.404  0.00  0.00    -0.285 N 
ATOM      2  C   UNL     1     -33.022 -12.453  17.255  0.00  0.00    +0.218 C 
ATOM      3  O   UNL     1     -32.788 -13.622  16.846  0.00  0.00    -0.275 OA
ATOM      4  H   UNL     1     -32.805 -11.169  18.945  0.00  0.00    +0.155 HD
ENDROOT
BRANCH   1   8
ATOM      5  C   UNL     1     -28.493 -13.166  19.777  0.00  0.00    +0.017 A 
ATOM      6  C   UNL     1     -29.616 -13.206  20.626  0.00  0.00    +0.013 A 
ATOM      7  C   UNL     1     -30.873 -12.807  20.161  0.00  0.00    +0.024 A 
ATOM      8  C   UNL     1     -31.041 -12.375  18.840  0.00  0.00    +0.033 A 
ATOM      9  C   UNL     1     -29.922 -12.316  17.994  0.00  0.00    +0.024 A 
ATOM     10  C   UNL     1     -28.664 -12.712  18.455  0.00  0.00    +0.013 A 
BRANCH   5  12
ATOM     11  C   UNL     1     -26.967 -14.439  21.471  0.00  0.00    +0.091 C 
ATOM     12  C   UNL     1     -27.147 -13.583  20.254  0.00  0.00    +0.160 C 
ATOM     13  O   UNL     1     -26.117 -13.212  19.625  0.00  0.00    -0.292 OA
ENDBRANCH   5  12
ENDBRANCH   1   8
BRANCH   2  14
ATOM     14  C   UNL     1     -33.998 -11.589  16.511  0.00  0.00    +0.115 C 
BRANCH  14  15
ATOM     15  C   UNL     1     -33.296 -10.804  15.383  0.00  0.00    +0.136 C 
BRANCH  15  16
ATOM     16  C   UNL     1     -33.020 -11.680  14.174  0.00  0.00    -0.033 A 
ATOM     17  C   UNL     1     -31.814 -12.399  14.057  0.00  0.00    +0.004 A 
ATOM     18  C   UNL     1     -31.601 -13.249  12.968  0.00  0.00    +0.000 A 
ATOM     19  C   UNL     1     -32.586 -13.395  11.989  0.00  0.00    +0.000 A 
ATOM     20  C   UNL     1     -33.786 -12.689  12.096  0.00  0.00    +0.000 A 
ATOM     21  C   UNL     1     -34.004 -11.835  13.180  0.00  0.00    +0.004 A 
ENDBRANCH  15  16
BRANCH  15  22
ATOM     22  C   UNL     1     -32.020 -10.169  15.869  0.00  0.00    +0.313 C 
ATOM     23  O   UNL     1     -30.956 -10.321  15.211  0.00  0.00    -0.250 OA
BRANCH  22  24
ATOM     24  O   UNL     1     -31.994  -9.454  17.065  0.00  0.00    -0.480 OA
ATOM     25  H   UNL     1     -32.701  -9.604  17.775  0.00  0.00    +0.295 HD
ENDBRANCH  22  24
ENDBRANCH  15  22
ENDBRANCH  14  15
ENDBRANCH   2  14
TORSDOF 7
ENDMDL
MODEL 8
REMARK VINA RESULT:    -3.904      1.903      2.229
REMARK INTER + INTRA:          -7.235
REMARK INTER:                  -5.806
REMARK INTRA:                  -1.428
REMARK UNBOUND:                -1.848
REMARK  Name = 
REMARK  8 active torsions:
REMARK  status: ('A' for Active; 'I' for Inactive)
REMARK    1  A    between atoms: C_1  and  C_2
REMARK    2  A    between atoms: C_2  and  C_4
REMARK    3  A    between atoms: C_7  and  N_10
REMARK    4  A    between atoms: C_11  and  C_13
REMARK    5  A    between atoms: C_13  and  C_14
REMARK    6  A    between atoms: C_14  and  C_15
REMARK    7  A    between atoms: C_14  and  C_18
REMARK    8  A    between atoms: C_15  and  O_17
REMARK                            x       y       z     vdW  Elec       q    Type
REMARK                         _______ _______ _______ _____ _____    ______ ____
ROOT
ATOM      1  N   UNL     1     -33.283 -11.011  18.111  0.00  0.00    -0.285 N 
ATOM      2  C   UNL     1     -33.164  -9.636  18.508  0.00  0.00    +0.218 C 
ATOM      3  O   UNL     1     -33.539  -8.713  17.736  0.00  0.00    -0.275 OA
ATOM      4  H   UNL     1     -33.351 -11.731  18.866  0.00  0.00    +0.155 HD
ENDROOT
BRANCH   1   8
ATOM      5  C   UNL     1     -33.209 -12.270  14.038  0.00  0.00    +0.017 A 
ATOM      6  C   UNL     1     -32.118 -12.513  14.894  0.00  0.00    +0.013 A 
ATOM      7  C   UNL     1     -32.158 -12.103  16.230  0.00  0.00    +0.024 A 
ATOM      8  C   UNL     1     -33.289 -11.458  16.745  0.00  0.00    +0.033 A 
ATOM      9  C   UNL     1     -34.373 -11.197  15.891  0.00  0.00    +0.024 A 
ATOM     10  C   UNL     1     -34.335 -11.603  14.555  0.00  0.00    +0.013 A 
BRANCH   5  12
ATOM     11  C   UNL     1     -31.919 -13.135  11.938  0.00  0.00    +0.091 C 
ATOM     12  C   UNL     1     -33.184 -12.696  12.612  0.00  0.00    +0.160 C 
ATOM     13  O   UNL     1     -34.251 -12.691  11.938  0.00  0.00    -0.292 OA
ENDBRANCH   5  12
ENDBRANCH   1   8
BRANCH   2  14
ATOM     14  C   UNL     1     -32.556  -9.291  19.836  0.00  0.00    +0.115 C 
BRANCH  14  15
ATOM     15  C   UNL     1     -31.084  -8.856  19.675  0.00  0.00    +0.136 C 
BRANCH  15  16
ATOM     16  C   UNL     1     -30.157 -10.048  19.526  0.00  0.00    -0.033 A 
ATOM     17  C   UNL     1     -29.421 -10.254  18.342  0.00  0.00    +0.004 A 
ATOM     18  C   UNL     1     -28.524 -11.321  18.243  0.00  0.00    +0.000 A 
ATOM     19  C   UNL     1     -28.348 -12.191  19.321  0.00  0.00    +0.000 A 
ATOM     20  C   UNL     1     -29.070 -11.996  20.500  0.00  0.00    +0.000 A 
ATOM     21  C   UNL     1     -29.970 -10.933  20.605  0.00  0.00    +0.004 A 
ENDBRANCH  15  16
BRANCH  15  22
ATOM     22  C   UNL     1     -30.640  -7.987  20.822  0.00  0.00    +0.313 C 
ATOM     23  O   UNL     1     -31.173  -8.128  21.955  0.00  0.00    -0.250 OA
BRANCH  22  24
ATOM     24  O   UNL     1     -29.678  -6.998  20.631  0.00  0.00    -0.480 OA
ATOM     25  H   UNL     1     -28.999  -7.070  19.884  0.00  0.00    +0.295 HD
ENDBRANCH  22  24
ENDBRANCH  15  22
ENDBRANCH  14  15
ENDBRANCH   2  14
TORSDOF 7
ENDMDL
MODEL 9
REMARK VINA RESULT:    -3.820      2.400      7.261
REMARK INTER + INTRA:          -7.119
REMARK INTER:                  -6.196
REMARK INTRA:                  -0.924
REMARK UNBOUND:                -1.848
REMARK  Name = 
REMARK  8 active torsions:
REMARK  status: ('A' for Active; 'I' for Inactive)
REMARK    1  A    between atoms: C_1  and  C_2
REMARK    2  A    between atoms: C_2  and  C_4
REMARK    3  A    between atoms: C_7  and  N_10
REMARK    4  A    between atoms: C_11  and  C_13
REMARK    5  A    between atoms: C_13  and  C_14
REMARK    6  A    between atoms: C_14  and  C_15
REMARK    7  A    between atoms: C_14  and  C_18
REMARK    8  A    between atoms: C_15  and  O_17
REMARK                            x       y       z     vdW  Elec       q    Type
REMARK                         _______ _______ _______ _____ _____    ______ ____
ROOT
ATOM      1  N   UNL     1     -32.283 -10.780  17.719  0.00  0.00    -0.285 N 
ATOM      2  C   UNL     1     -32.366 -12.140  18.172  0.00  0.00    +0.218 C 
ATOM      3  O   UNL     1     -32.718 -12.400  19.354  0.00  0.00    -0.275 OA
ATOM      4  H   UNL     1     -32.384 -10.602  16.694  0.00  0.00    +0.155 HD
ENDROOT
BRANCH   1   8
ATOM      5  C   UNL     1     -31.570  -7.377  20.188  0.00  0.00    +0.017 A 
ATOM      6  C   UNL     1     -32.725  -7.465  19.386  0.00  0.00    +0.013 A 
ATOM      7  C   UNL     1     -32.951  -8.590  18.587  0.00  0.00    +0.024 A 
ATOM      8  C   UNL     1     -32.043  -9.656  18.582  0.00  0.00    +0.033 A 
ATOM      9  C   UNL     1     -30.881  -9.566  19.366  0.00  0.00    +0.024 A 
ATOM     10  C   UNL     1     -30.650  -8.442  20.163  0.00  0.00    +0.013 A 
BRANCH   5  12
ATOM     11  C   UNL     1     -29.932  -5.841  21.521  0.00  0.00    +0.091 C 
ATOM     12  C   UNL     1     -31.310  -6.187  21.042  0.00  0.00    +0.160 C 
ATOM     13  O   UNL     1     -32.267  -5.438  21.381  0.00  0.00    -0.292 OA
ENDBRANCH   5  12
ENDBRANCH   1   8
BRANCH   2  14
ATOM     14  C   UNL     1     -31.997 -13.261  17.245  0.00  0.00    +0.115 C 
BRANCH  14  15
ATOM     15  C   UNL     1     -30.616 -13.016  16.601  0.00  0.00    +0.136 C 
BRANCH  15  16
ATOM     16  C   UNL     1     -30.549 -13.560  15.186  0.00  0.00    -0.033 A 
ATOM     17  C   UNL     1     -31.329 -13.000  14.154  0.00  0.00    +0.004 A 
ATOM     18  C   UNL     1     -31.211 -13.471  12.844  0.00  0.00    +0.000 A 
ATOM     19  C   UNL     1     -30.315 -14.499  12.546  0.00  0.00    +0.000 A 
ATOM     20  C   UNL     1     -29.536 -15.061  13.560  0.00  0.00    +0.000 A 
ATOM     21  C   UNL     1     -29.651 -14.597  14.872  0.00  0.00    +0.004 A 
ENDBRANCH  15  16
BRANCH  15  22
ATOM     22  C   UNL     1     -29.509 -13.600  17.438  0.00  0.00    +0.313 C 
ATOM     23  O   UNL     1     -28.327 -13.188  17.287  0.00  0.00    -0.250 OA
BRANCH  22  24
ATOM     24  O   UNL     1     -29.770 -14.625  18.345  0.00  0.00    -0.480 OA
ATOM     25  H   UNL     1     -29.144 -14.806  19.120  0.00  0.00    +0.295 HD
ENDBRANCH  22  24
ENDBRANCH  15  22
ENDBRANCH  14  15
ENDBRANCH   2  14
TORSDOF 7
ENDMDL
