MODEL 1
REMARK VINA RESULT:    -4.507      0.000      0.000
REMARK INTER + INTRA:          -6.005
REMARK INTER:                  -5.560
REMARK INTRA:                  -0.444
REMARK UNBOUND:                -0.444
REMARK  Name = 
REMARK  6 active torsions:
REMARK  status: ('A' for Active; 'I' for Inactive)
REMARK    1  A    between atoms: C_1  and  N_2
REMARK    2  A    between atoms: N_2  and  C_3
REMARK    3  A    between atoms: C_4  and  C_6
REMARK    4  A    between atoms: C_9  and  O_12
REMARK    5  A    between atoms: O_12  and  C_13
REMARK    6  A    between atoms: C_13  and  C_14
REMARK                            x       y       z     vdW  Elec       q    Type
REMARK                         _______ _______ _______ _____ _____    ______ ____
ROOT
ATOM      1  C   UNL     1     -31.234 -13.207  15.276  0.00  0.00    +0.037 A 
ATOM      2  C   UNL     1     -30.812 -12.065  15.974  0.00  0.00    +0.016 A 
ATOM      3  C   UNL     1     -30.522 -12.135  17.340  0.00  0.00    +0.046 A 
ATOM      4  C   UNL     1     -30.637 -13.358  18.027  0.00  0.00    +0.121 A 
ATOM      5  C   UNL     1     -31.036 -14.500  17.324  0.00  0.00    +0.046 A 
ATOM      6  C   UNL     1     -31.326 -14.431  15.958  0.00  0.00    +0.016 A 
ENDROOT
BRANCH   1  10
ATOM      7  C   UNL     1     -33.226 -13.259  11.996  0.00  0.00    +0.132 C 
ATOM      8  N   UNL     1     -32.837 -12.803  13.333  0.00  0.00    -0.304 N 
ATOM      9  C   UNL     1     -33.712 -11.898  14.085  0.00  0.00    +0.132 C 
ATOM     10  C   UNL     1     -31.522 -13.126  13.829  0.00  0.00    +0.246 C 
ATOM     11  O   UNL     1     -30.585 -13.339  13.010  0.00  0.00    -0.270 OA
ENDBRANCH   1  10
BRANCH   4  12
ATOM     12  O   UNL     1     -30.361 -13.482  19.396  0.00  0.00    -0.487 OA
BRANCH  12  13
ATOM     13  C   UNL     1     -29.618 -12.535  20.157  0.00  0.00    +0.266 C 
BRANCH  13  14
ATOM     14  C   UNL     1     -28.235 -13.066  20.389  0.00  0.00    +0.008 A 
ATOM     15  C   UNL     1     -27.992 -14.006  21.401  0.00  0.00    +0.010 A 
ATOM     16  C   UNL     1     -26.707 -14.523  21.581  0.00  0.00    +0.020 A 
ATOM     17  C   UNL     1     -25.677 -14.103  20.738  0.00  0.00    +0.111 A 
ATOM     18  N   UNL     1     -25.930 -13.205  19.748  0.00  0.00    -0.263 NA
ATOM     19  C   UNL     1     -27.173 -12.686  19.554  0.00  0.00    +0.117 A 
ENDBRANCH  13  14
ENDBRANCH  12  13
ENDBRANCH   4  12
TORSDOF 4
ENDMDL
MODEL 2
REMARK VINA RESULT:    -4.225      1.687      2.078
REMARK INTER + INTRA:          -5.657
REMARK INTER:                  -5.324
REMARK INTRA:                  -0.333
REMARK UNBOUND:                -0.444
REMARK  Name = 
REMARK  6 active torsions:
REMARK  status: ('A' for Active; 'I' for Inactive)
REMARK    1  A    between atoms: C_1  and  N_2
REMARK    2  A    between atoms: N_2  and  C_3
REMARK    3  A    between atoms: C_4  and  C_6
REMARK    4  A    between atoms: C_9  and  O_12
REMARK    5  A    between atoms: O_12  and  C_13
REMARK    6  A    between atoms: C_13  and  C_14
REMARK                            x       y       z     vdW  Elec       q    Type
REMARK                         _______ _______ _______ _____ _____    ______ ____
ROOT
ATOM      1  C   UNL     1     -32.191 -11.719  15.308  0.00  0.00    +0.037 A 
ATOM      2  C   UNL     1     -31.791 -10.384  15.472  0.00  0.00    +0.016 A 
ATOM      3  C   UNL     1     -30.778 -10.054  16.378  0.00  0.00    +0.046 A 
ATOM      4  C   UNL     1     -30.139 -11.061  17.126  0.00  0.00    +0.121 A 
ATOM      5  C   UNL     1     -30.525 -12.394  16.944  0.00  0.00    +0.046 A 
ATOM      6  C   UNL     1     -31.538 -12.724  16.038  0.00  0.00    +0.016 A 
ENDROOT
BRANCH   1  10
ATOM      7  C   UNL     1     -33.972 -12.175  11.939  0.00  0.00    +0.132 C 
ATOM      8  N   UNL     1     -32.948 -12.387  12.966  0.00  0.00    -0.304 N 
ATOM      9  C   UNL     1     -31.696 -13.072  12.626  0.00  0.00    +0.132 C 
ATOM     10  C   UNL     1     -33.252 -12.060  14.337  0.00  0.00    +0.246 C 
ATOM     11  O   UNL     1     -34.452 -12.070  14.726  0.00  0.00    -0.270 OA
ENDBRANCH   1  10
BRANCH   4  12
ATOM     12  O   UNL     1     -29.120 -10.783  18.048  0.00  0.00    -0.487 OA
BRANCH  12  13
ATOM     13  C   UNL     1     -29.261 -10.891  19.461  0.00  0.00    +0.266 C 
BRANCH  13  14
ATOM     14  C   UNL     1     -28.424 -12.035  19.953  0.00  0.00    +0.008 A 
ATOM     15  C   UNL     1     -28.826 -12.786  21.067  0.00  0.00    +0.010 A 
ATOM     16  C   UNL     1     -28.058 -13.872  21.491  0.00  0.00    +0.020 A 
ATOM     17  C   UNL     1     -26.899 -14.206  20.788  0.00  0.00    +0.111 A 
ATOM     18  N   UNL     1     -26.531 -13.481  19.698  0.00  0.00    -0.263 NA
ATOM     19  C   UNL     1     -27.262 -12.417  19.266  0.00  0.00    +0.117 A 
ENDBRANCH  13  14
ENDBRANCH  12  13
ENDBRANCH   4  12
TORSDOF 4
ENDMDL
MODEL 3
REMARK VINA RESULT:    -4.114      2.283      2.614
REMARK INTER + INTRA:          -5.520
REMARK INTER:                  -5.150
REMARK INTRA:                  -0.371
REMARK UNBOUND:                -0.444
REMARK  Name = 
REMARK  6 active torsions:
REMARK  status: ('A' for Active; 'I' for Inactive)
REMARK    1  A    between atoms: C_1  and  N_2
REMARK    2  A    between atoms: N_2  and  C_3
REMARK    3  A    between atoms: C_4  and  C_6
REMARK    4  A    between atoms: C_9  and  O_12
REMARK    5  A    between atoms: O_12  and  C_13
REMARK    6  A    between atoms: C_13  and  C_14
REMARK                            x       y       z     vdW  Elec       q    Type
REMARK                         _______ _______ _______ _____ _____    ______ ____
ROOT
ATOM      1  C   UNL     1     -32.959 -11.936  17.521  0.00  0.00    +0.037 A 
ATOM      2  C   UNL     1     -32.832 -11.218  18.721  0.00  0.00    +0.016 A 
ATOM      3  C   UNL     1     -31.960 -11.659  19.721  0.00  0.00    +0.046 A 
ATOM      4  C   UNL     1     -31.188 -12.820  19.528  0.00  0.00    +0.121 A 
ATOM      5  C   UNL     1     -31.300 -13.521  18.322  0.00  0.00    +0.046 A 
ATOM      6  C   UNL     1     -32.173 -13.081  17.322  0.00  0.00    +0.016 A 
ENDROOT
BRANCH   1  10
ATOM      7  C   UNL     1     -34.424  -9.669  14.793  0.00  0.00    +0.132 C 
ATOM      8  N   UNL     1     -33.434 -10.528  15.448  0.00  0.00    -0.304 N 
ATOM      9  C   UNL     1     -32.051 -10.559  14.961  0.00  0.00    +0.132 C 
ATOM     10  C   UNL     1     -33.872 -11.453  16.464  0.00  0.00    +0.246 C 
ATOM     11  O   UNL     1     -35.062 -11.872  16.450  0.00  0.00    -0.270 OA
ENDBRANCH   1  10
BRANCH   4  12
ATOM     12  O   UNL     1     -30.301 -13.305  20.500  0.00  0.00    -0.487 OA
BRANCH  12  13
ATOM     13  C   UNL     1     -29.316 -12.514  21.158  0.00  0.00    +0.266 C 
BRANCH  13  14
ATOM     14  C   UNL     1     -27.974 -13.164  20.994  0.00  0.00    +0.008 A 
ATOM     15  C   UNL     1     -27.560 -14.179  21.869  0.00  0.00    +0.010 A 
ATOM     16  C   UNL     1     -26.325 -14.802  21.682  0.00  0.00    +0.020 A 
ATOM     17  C   UNL     1     -25.518 -14.412  20.612  0.00  0.00    +0.111 A 
ATOM     18  N   UNL     1     -25.938 -13.440  19.760  0.00  0.00    -0.263 NA
ATOM     19  C   UNL     1     -27.138 -12.817  19.922  0.00  0.00    +0.117 A 
ENDBRANCH  13  14
ENDBRANCH  12  13
ENDBRANCH   4  12
TORSDOF 4
ENDMDL
MODEL 4
REMARK VINA RESULT:    -4.076      3.023      3.315
REMARK INTER + INTRA:          -5.473
REMARK INTER:                  -5.043
REMARK INTRA:                  -0.431
REMARK UNBOUND:                -0.444
REMARK  Name = 
REMARK  6 active torsions:
REMARK  status: ('A' for Active; 'I' for Inactive)
REMARK    1  A    between atoms: C_1  and  N_2
REMARK    2  A    between atoms: N_2  and  C_3
REMARK    3  A    between atoms: C_4  and  C_6
REMARK    4  A    between atoms: C_9  and  O_12
REMARK    5  A    between atoms: O_12  and  C_13
REMARK    6  A    between atoms: C_13  and  C_14
REMARK                            x       y       z     vdW  Elec       q    Type
REMARK                         _______ _______ _______ _____ _____    ______ ____
ROOT
ATOM      1  C   UNL     1     -32.505  -9.544  16.585  0.00  0.00    +0.037 A 
ATOM      2  C   UNL     1     -32.685  -9.349  17.963  0.00  0.00    +0.016 A 
ATOM      3  C   UNL     1     -31.640  -9.605  18.857  0.00  0.00    +0.046 A 
ATOM      4  C   UNL     1     -30.391 -10.047  18.381  0.00  0.00    +0.121 A 
ATOM      5  C   UNL     1     -30.209 -10.219  17.005  0.00  0.00    +0.046 A 
ATOM      6  C   UNL     1     -31.253  -9.964  16.110  0.00  0.00    +0.016 A 
ENDROOT
BRANCH   1  10
ATOM      7  C   UNL     1     -34.934  -9.977  13.646  0.00  0.00    +0.132 C 
ATOM      8  N   UNL     1     -34.277 -10.303  14.914  0.00  0.00    -0.304 N 
ATOM      9  C   UNL     1     -34.436 -11.636  15.503  0.00  0.00    +0.132 C 
ATOM     10  C   UNL     1     -33.610  -9.255  15.647  0.00  0.00    +0.246 C 
ATOM     11  O   UNL     1     -33.980  -8.058  15.494  0.00  0.00    -0.270 OA
ENDBRANCH   1  10
BRANCH   4  12
ATOM     12  O   UNL     1     -29.313 -10.320  19.235  0.00  0.00    -0.487 OA
BRANCH  12  13
ATOM     13  C   UNL     1     -29.427 -10.981  20.492  0.00  0.00    +0.266 C 
BRANCH  13  14
ATOM     14  C   UNL     1     -28.450 -12.117  20.541  0.00  0.00    +0.008 A 
ATOM     15  C   UNL     1     -28.420 -12.985  21.642  0.00  0.00    +0.010 A 
ATOM     16  C   UNL     1     -27.532 -14.062  21.658  0.00  0.00    +0.020 A 
ATOM     17  C   UNL     1     -26.689 -14.270  20.565  0.00  0.00    +0.111 A 
ATOM     18  N   UNL     1     -26.741 -13.431  19.495  0.00  0.00    -0.263 NA
ATOM     19  C   UNL     1     -27.597 -12.374  19.457  0.00  0.00    +0.117 A 
ENDBRANCH  13  14
ENDBRANCH  12  13
ENDBRANCH   4  12
TORSDOF 4
ENDMDL
MODEL 5
REMARK VINA RESULT:    -4.063      1.667      7.785
REMARK INTER + INTRA:          -5.458
REMARK INTER:                  -4.938
REMARK INTRA:                  -0.520
REMARK UNBOUND:                -0.444
REMARK  Name = 
REMARK  6 active torsions:
REMARK  status: ('A' for Active; 'I' for Inactive)
REMARK    1  A    between atoms: C_1  and  N_2
REMARK    2  A    between atoms: N_2  and  C_3
REMARK    3  A    between atoms: C_4  and  C_6
REMARK    4  A    between atoms: C_9  and  O_12
REMARK    5  A    between atoms: O_12  and  C_13
REMARK    6  A    between atoms: C_13  and  C_14
REMARK                            x       y       z     vdW  Elec       q    Type
REMARK                         _______ _______ _______ _____ _____    ______ ____
ROOT
ATOM      1  C   UNL     1     -29.468 -11.979  19.303  0.00  0.00    +0.037 A 
ATOM      2  C   UNL     1     -29.344 -10.658  18.845  0.00  0.00    +0.016 A 
ATOM      3  C   UNL     1     -29.823 -10.298  17.582  0.00  0.00    +0.046 A 
ATOM      4  C   UNL     1     -30.448 -11.255  16.760  0.00  0.00    +0.121 A 
ATOM      5  C   UNL     1     -30.591 -12.566  17.229  0.00  0.00    +0.046 A 
ATOM      6  C   UNL     1     -30.112 -12.927  18.492  0.00  0.00    +0.016 A 
ENDROOT
BRANCH   1  10
ATOM      7  C   UNL     1     -27.694 -13.970  22.062  0.00  0.00    +0.132 C 
ATOM      8  N   UNL     1     -27.822 -13.196  20.825  0.00  0.00    -0.304 N 
ATOM      9  C   UNL     1     -26.718 -13.164  19.860  0.00  0.00    +0.132 C 
ATOM     10  C   UNL     1     -28.973 -12.347  20.646  0.00  0.00    +0.246 C 
ATOM     11  O   UNL     1     -29.575 -11.895  21.660  0.00  0.00    -0.270 OA
ENDBRANCH   1  10
BRANCH   4  12
ATOM     12  O   UNL     1     -30.944 -10.946  15.485  0.00  0.00    -0.487 OA
BRANCH  12  13
ATOM     13  C   UNL     1     -32.318 -10.715  15.189  0.00  0.00    +0.266 C 
BRANCH  13  14
ATOM     14  C   UNL     1     -32.725 -11.583  14.036  0.00  0.00    +0.008 A 
ATOM     15  C   UNL     1     -31.801 -12.448  13.432  0.00  0.00    +0.010 A 
ATOM     16  C   UNL     1     -32.203 -13.279  12.385  0.00  0.00    +0.020 A 
ATOM     17  C   UNL     1     -33.531 -13.246  11.958  0.00  0.00    +0.111 A 
ATOM     18  N   UNL     1     -34.422 -12.417  12.564  0.00  0.00    -0.263 NA
ATOM     19  C   UNL     1     -34.054 -11.596  13.586  0.00  0.00    +0.117 A 
ENDBRANCH  13  14
ENDBRANCH  12  13
ENDBRANCH   4  12
TORSDOF 4
ENDMDL
MODEL 6
REMARK VINA RESULT:    -4.044      1.769      7.480
REMARK INTER + INTRA:          -5.434
REMARK INTER:                  -4.926
REMARK INTRA:                  -0.509
REMARK UNBOUND:                -0.444
REMARK  Name = 
REMARK  6 active torsions:
REMARK  status: ('A' for Active; 'I' for Inactive)
REMARK    1  A    between atoms: C_1  and  N_2
REMARK    2  A    between atoms: N_2  and  C_3
REMARK    3  A    between atoms: C_4  and  C_6
REMARK    4  A    between atoms: C_9  and  O_12
REMARK    5  A    between atoms: O_12  and  C_13
REMARK    6  A    between atoms: C_13  and  C_14
REMARK                            x       y       z     vdW  Elec       q    Type
REMARK                         _______ _______ _______ _____ _____    ______ ____
ROOT
ATOM      1  C   UNL     1     -30.237 -13.090  19.350  0.00  0.00    +0.037 A 
ATOM      2  C   UNL     1     -31.068 -11.984  19.582  0.00  0.00    +0.016 A 
ATOM      3  C   UNL     1     -32.140 -11.712  18.726  0.00  0.00    +0.046 A 
ATOM      4  C   UNL     1     -32.405 -12.554  17.630  0.00  0.00    +0.121 A 
ATOM      5  C   UNL     1     -31.587 -13.669  17.415  0.00  0.00    +0.046 A 
ATOM      6  C   UNL     1     -30.515 -13.942  18.270  0.00  0.00    +0.016 A 
ENDROOT
BRANCH   1  10
ATOM      7  C   UNL     1     -26.687 -13.929  20.543  0.00  0.00    +0.132 C 
ATOM      8  N   UNL     1     -27.744 -13.153  19.889  0.00  0.00    -0.304 N 
ATOM      9  C   UNL     1     -27.397 -12.055  18.982  0.00  0.00    +0.132 C 
ATOM     10  C   UNL     1     -29.116 -13.380  20.270  0.00  0.00    +0.246 C 
ATOM     11  O   UNL     1     -29.375 -13.829  21.421  0.00  0.00    -0.270 OA
ENDBRANCH   1  10
BRANCH   4  12
ATOM     12  O   UNL     1     -33.465 -12.324  16.741  0.00  0.00    -0.487 OA
BRANCH  12  13
ATOM     13  C   UNL     1     -33.461 -11.326  15.724  0.00  0.00    +0.266 C 
BRANCH  13  14
ATOM     14  C   UNL     1     -33.327 -11.989  14.386  0.00  0.00    +0.008 A 
ATOM     15  C   UNL     1     -32.085 -12.473  13.951  0.00  0.00    +0.010 A 
ATOM     16  C   UNL     1     -31.980 -13.123  12.719  0.00  0.00    +0.020 A 
ATOM     17  C   UNL     1     -33.124 -13.295  11.938  0.00  0.00    +0.111 A 
ATOM     18  N   UNL     1     -34.326 -12.838  12.380  0.00  0.00    -0.263 NA
ATOM     19  C   UNL     1     -34.453 -12.200  13.576  0.00  0.00    +0.117 A 
ENDBRANCH  13  14
ENDBRANCH  12  13
ENDBRANCH   4  12
TORSDOF 4
ENDMDL
MODEL 7
REMARK VINA RESULT:    -3.872      3.715      6.586
REMARK INTER + INTRA:          -5.222
REMARK INTER:                  -4.739
REMARK INTRA:                  -0.483
REMARK UNBOUND:                -0.444
REMARK  Name = 
REMARK  6 active torsions:
REMARK  status: ('A' for Active; 'I' for Inactive)
REMARK    1  A    between atoms: C_1  and  N_2
REMARK    2  A    between atoms: N_2  and  C_3
REMARK    3  A    between atoms: C_4  and  C_6
REMARK    4  A    between atoms: C_9  and  O_12
REMARK    5  A    between atoms: O_12  and  C_13
REMARK    6  A    between atoms: C_13  and  C_14
REMARK                            x       y       z     vdW  Elec       q    Type
REMARK                         _______ _______ _______ _____ _____    ______ ____
ROOT
ATOM      1  C   UNL     1     -30.465  -9.582  19.107  0.00  0.00    +0.037 A 
ATOM      2  C   UNL     1     -29.769 -10.567  19.823  0.00  0.00    +0.016 A 
ATOM      3  C   UNL     1     -29.281 -11.705  19.173  0.00  0.00    +0.046 A 
ATOM      4  C   UNL     1     -29.472 -11.867  17.788  0.00  0.00    +0.121 A 
ATOM      5  C   UNL     1     -30.147 -10.872  17.072  0.00  0.00    +0.046 A 
ATOM      6  C   UNL     1     -30.635  -9.734  17.722  0.00  0.00    +0.016 A 
ENDROOT
BRANCH   1  10
ATOM      7  C   UNL     1     -32.810  -6.709  20.093  0.00  0.00    +0.132 C 
ATOM      8  N   UNL     1     -32.371  -8.096  19.923  0.00  0.00    -0.304 N 
ATOM      9  C   UNL     1     -33.337  -9.193  20.041  0.00  0.00    +0.132 C 
ATOM     10  C   UNL     1     -30.962  -8.374  19.800  0.00  0.00    +0.246 C 
ATOM     11  O   UNL     1     -30.124  -7.574  20.302  0.00  0.00    -0.270 OA
ENDBRANCH   1  10
BRANCH   4  12
ATOM     12  O   UNL     1     -29.006 -12.990  17.089  0.00  0.00    -0.487 OA
BRANCH  12  13
ATOM     13  C   UNL     1     -29.818 -14.096  16.707  0.00  0.00    +0.266 C 
BRANCH  13  14
ATOM     14  C   UNL     1     -29.729 -14.282  15.222  0.00  0.00    +0.008 A 
ATOM     15  C   UNL     1     -28.579 -14.832  14.638  0.00  0.00    +0.010 A 
ATOM     16  C   UNL     1     -28.524 -15.036  13.258  0.00  0.00    +0.020 A 
ATOM     17  C   UNL     1     -29.629 -14.699  12.473  0.00  0.00    +0.111 A 
ATOM     18  N   UNL     1     -30.746 -14.184  13.054  0.00  0.00    -0.263 NA
ATOM     19  C   UNL     1     -30.822 -13.975  14.396  0.00  0.00    +0.117 A 
ENDBRANCH  13  14
ENDBRANCH  12  13
ENDBRANCH   4  12
TORSDOF 4
ENDMDL
MODEL 8
REMARK VINA RESULT:    -3.802      4.337      6.609
REMARK INTER + INTRA:          -5.135
REMARK INTER:                  -4.584
REMARK INTRA:                  -0.551
REMARK UNBOUND:                -0.444
REMARK  Name = 
REMARK  6 active torsions:
REMARK  status: ('A' for Active; 'I' for Inactive)
REMARK    1  A    between atoms: C_1  and  N_2
REMARK    2  A    between atoms: N_2  and  C_3
REMARK    3  A    between atoms: C_4  and  C_6
REMARK    4  A    between atoms: C_9  and  O_12
REMARK    5  A    between atoms: O_12  and  C_13
REMARK    6  A    between atoms: C_13  and  C_14
REMARK                            x       y       z     vdW  Elec       q    Type
REMARK                         _______ _______ _______ _____ _____    ______ ____
ROOT
ATOM      1  C   UNL     1     -32.415  -9.291  17.699  0.00  0.00    +0.037 A 
ATOM      2  C   UNL     1     -31.119  -9.660  17.305  0.00  0.00    +0.016 A 
ATOM      3  C   UNL     1     -30.912 -10.354  16.109  0.00  0.00    +0.046 A 
ATOM      4  C   UNL     1     -32.002 -10.678  15.279  0.00  0.00    +0.121 A 
ATOM      5  C   UNL     1     -33.290 -10.289  15.663  0.00  0.00    +0.046 A 
ATOM      6  C   UNL     1     -33.498  -9.595  16.859  0.00  0.00    +0.016 A 
ENDROOT
BRANCH   1  10
ATOM      7  C   UNL     1     -33.967  -8.248  21.050  0.00  0.00    +0.132 C 
ATOM      8  N   UNL     1     -33.305  -9.128  20.084  0.00  0.00    -0.304 N 
ATOM      9  C   UNL     1     -33.201 -10.567  20.350  0.00  0.00    +0.132 C 
ATOM     10  C   UNL     1     -32.622  -8.543  18.956  0.00  0.00    +0.246 C 
ATOM     11  O   UNL     1     -32.180  -7.364  19.042  0.00  0.00    -0.270 OA
ENDBRANCH   1  10
BRANCH   4  12
ATOM     12  O   UNL     1     -31.849 -11.375  14.072  0.00  0.00    -0.487 OA
BRANCH  12  13
ATOM     13  C   UNL     1     -32.139 -12.758  13.897  0.00  0.00    +0.266 C 
BRANCH  13  14
ATOM     14  C   UNL     1     -30.859 -13.539  13.941  0.00  0.00    +0.008 A 
ATOM     15  C   UNL     1     -30.335 -13.983  15.163  0.00  0.00    +0.010 A 
ATOM     16  C   UNL     1     -29.164 -14.742  15.187  0.00  0.00    +0.020 A 
ATOM     17  C   UNL     1     -28.532 -15.062  13.984  0.00  0.00    +0.111 A 
ATOM     18  N   UNL     1     -29.061 -14.642  12.804  0.00  0.00    -0.263 NA
ATOM     19  C   UNL     1     -30.201 -13.899  12.755  0.00  0.00    +0.117 A 
ENDBRANCH  13  14
ENDBRANCH  12  13
ENDBRANCH   4  12
TORSDOF 4
ENDMDL
