MODEL 1
REMARK VINA RESULT:    -4.955      0.000      0.000
REMARK INTER + INTRA:          -6.449
REMARK INTER:                  -6.114
REMARK INTRA:                  -0.335
REMARK UNBOUND:                -0.335
REMARK  Name = 
REMARK  4 active torsions:
REMARK  status: ('A' for Active; 'I' for Inactive)
REMARK    1  A    between atoms: C_2  and  C_3
REMARK    2  A    between atoms: N_13  and  C_14
REMARK    3  A    between atoms: C_14  and  C_15
REMARK    4  A    between atoms: C_19  and  N_21
REMARK                            x       y       z     vdW  Elec       q    Type
REMARK                         _______ _______ _______ _____ _____    ______ ____
ROOT
ATOM      1  C   UNL     1     -27.269 -13.117  20.162  0.00  0.00    +0.052 A 
ATOM      2  C   UNL     1     -28.432 -13.624  20.758  0.00  0.00    +0.021 A 
ATOM      3  C   UNL     1     -29.690 -13.203  20.317  0.00  0.00    +0.029 A 
ATOM      4  C   UNL     1     -29.794 -12.272  19.279  0.00  0.00    +0.073 A 
ATOM      5  N   UNL     1     -31.016 -11.859  18.850  0.00  0.00    -0.232 NA
ATOM      6  C   UNL     1     -31.167 -10.952  17.845  0.00  0.00    +0.120 A 
ATOM      7  C   UNL     1     -30.024 -10.426  17.217  0.00  0.00    +0.044 A 
ATOM      8  C   UNL     1     -28.755 -10.829  17.637  0.00  0.00    +0.013 A 
ATOM      9  C   UNL     1     -28.626 -11.758  18.675  0.00  0.00    +0.002 A 
ATOM     10  C   UNL     1     -27.366 -12.184  19.121  0.00  0.00    +0.029 A 
ATOM     11  N   UNL     1     -32.497 -10.568  17.455  0.00  0.00    -0.325 N 
ATOM     12  H   UNL     1     -33.300 -11.068  17.900  0.00  0.00    +0.148 HD
ENDROOT
BRANCH   1  14
ATOM     13  N   UNL     1     -24.938 -13.906  20.987  0.00  0.00    -0.191 NA
ATOM     14  C   UNL     1     -25.976 -13.554  20.620  0.00  0.00    +0.099 C 
ENDBRANCH   1  14
BRANCH  11  15
ATOM     15  C   UNL     1     -32.811  -9.485  16.521  0.00  0.00    +0.138 C 
BRANCH  15  16
ATOM     16  C   UNL     1     -33.450 -10.029  15.270  0.00  0.00    -0.028 A 
ATOM     17  C   UNL     1     -34.477  -9.318  14.628  0.00  0.00    +0.005 A 
ATOM     18  C   UNL     1     -35.062  -9.824  13.467  0.00  0.00    +0.003 A 
ATOM     19  C   UNL     1     -34.625 -11.037  12.930  0.00  0.00    +0.033 A 
ATOM     20  C   UNL     1     -33.591 -11.759  13.548  0.00  0.00    +0.127 A 
ATOM     21  C   UNL     1     -33.004 -11.242  14.720  0.00  0.00    +0.038 A 
BRANCH  20  22
ATOM     22  N   UNL     1     -33.139 -13.006  12.990  0.00  0.00    +0.056 N 
ATOM     23  O   UNL     1     -31.979 -13.594  13.440  0.00  0.00    -0.126 OA
ATOM     24  O   UNL     1     -33.789 -13.575  12.088  0.00  0.00    -0.126 OA
ENDBRANCH  20  22
ENDBRANCH  15  16
ENDBRANCH  11  15
TORSDOF 4
ENDMDL
MODEL 2
REMARK VINA RESULT:    -4.302      4.559      6.248
REMARK INTER + INTRA:          -5.643
REMARK INTER:                  -5.365
REMARK INTRA:                  -0.278
REMARK UNBOUND:                -0.335
REMARK  Name = 
REMARK  4 active torsions:
REMARK  status: ('A' for Active; 'I' for Inactive)
REMARK    1  A    between atoms: C_2  and  C_3
REMARK    2  A    between atoms: N_13  and  C_14
REMARK    3  A    between atoms: C_14  and  C_15
REMARK    4  A    between atoms: C_19  and  N_21
REMARK                            x       y       z     vdW  Elec       q    Type
REMARK                         _______ _______ _______ _____ _____    ______ ____
ROOT
ATOM      1  C   UNL     1     -29.912 -14.132  13.836  0.00  0.00    +0.052 A 
ATOM      2  C   UNL     1     -29.843 -14.687  15.121  0.00  0.00    +0.021 A 
ATOM      3  C   UNL     1     -30.653 -14.190  16.147  0.00  0.00    +0.029 A 
ATOM      4  C   UNL     1     -31.536 -13.136  15.895  0.00  0.00    +0.073 A 
ATOM      5  N   UNL     1     -32.323 -12.650  16.892  0.00  0.00    -0.232 NA
ATOM      6  C   UNL     1     -33.196 -11.623  16.695  0.00  0.00    +0.120 A 
ATOM      7  C   UNL     1     -33.300 -11.044  15.417  0.00  0.00    +0.044 A 
ATOM      8  C   UNL     1     -32.503 -11.520  14.374  0.00  0.00    +0.013 A 
ATOM      9  C   UNL     1     -31.610 -12.574  14.602  0.00  0.00    +0.002 A 
ATOM     10  C   UNL     1     -30.796 -13.075  13.576  0.00  0.00    +0.029 A 
ATOM     11  N   UNL     1     -33.989 -11.168  17.805  0.00  0.00    -0.325 N 
ATOM     12  H   UNL     1     -33.928 -11.704  18.700  0.00  0.00    +0.148 HD
ENDROOT
BRANCH   1  14
ATOM     13  N   UNL     1     -28.406 -15.062  11.938  0.00  0.00    -0.191 NA
ATOM     14  C   UNL     1     -29.077 -14.648  12.783  0.00  0.00    +0.099 C 
ENDBRANCH   1  14
BRANCH  11  15
ATOM     15  C   UNL     1     -34.833  -9.971  17.790  0.00  0.00    +0.138 C 
BRANCH  15  16
ATOM     16  C   UNL     1     -34.100  -8.796  18.381  0.00  0.00    -0.028 A 
ATOM     17  C   UNL     1     -34.712  -7.534  18.447  0.00  0.00    +0.005 A 
ATOM     18  C   UNL     1     -34.030  -6.449  19.000  0.00  0.00    +0.003 A 
ATOM     19  C   UNL     1     -32.738  -6.613  19.502  0.00  0.00    +0.033 A 
ATOM     20  C   UNL     1     -32.110  -7.870  19.459  0.00  0.00    +0.127 A 
ATOM     21  C   UNL     1     -32.804  -8.960  18.899  0.00  0.00    +0.038 A 
BRANCH  20  22
ATOM     22  N   UNL     1     -30.779  -8.037  19.981  0.00  0.00    +0.056 N 
ATOM     23  O   UNL     1     -29.918  -8.950  19.418  0.00  0.00    -0.126 OA
ATOM     24  O   UNL     1     -30.385  -7.359  20.952  0.00  0.00    -0.126 OA
ENDBRANCH  20  22
ENDBRANCH  15  16
ENDBRANCH  11  15
TORSDOF 4
ENDMDL
MODEL 3
REMARK VINA RESULT:    -4.059      4.720      6.871
REMARK INTER + INTRA:          -5.343
REMARK INTER:                  -4.957
REMARK INTRA:                  -0.386
REMARK UNBOUND:                -0.335
REMARK  Name = 
REMARK  4 active torsions:
REMARK  status: ('A' for Active; 'I' for Inactive)
REMARK    1  A    between atoms: C_2  and  C_3
REMARK    2  A    between atoms: N_13  and  C_14
REMARK    3  A    between atoms: C_14  and  C_15
REMARK    4  A    between atoms: C_19  and  N_21
REMARK                            x       y       z     vdW  Elec       q    Type
REMARK                         _______ _______ _______ _____ _____    ______ ____
ROOT
ATOM      1  C   UNL     1     -29.520 -14.151  13.694  0.00  0.00    +0.052 A 
ATOM      2  C   UNL     1     -30.802 -13.750  13.295  0.00  0.00    +0.021 A 
ATOM      3  C   UNL     1     -31.711 -13.257  14.237  0.00  0.00    +0.029 A 
ATOM      4  C   UNL     1     -31.344 -13.164  15.583  0.00  0.00    +0.073 A 
ATOM      5  N   UNL     1     -32.227 -12.688  16.501  0.00  0.00    -0.232 NA
ATOM      6  C   UNL     1     -31.916 -12.581  17.823  0.00  0.00    +0.120 A 
ATOM      7  C   UNL     1     -30.637 -12.967  18.261  0.00  0.00    +0.044 A 
ATOM      8  C   UNL     1     -29.709 -13.462  17.343  0.00  0.00    +0.013 A 
ATOM      9  C   UNL     1     -30.054 -13.567  15.990  0.00  0.00    +0.002 A 
ATOM     10  C   UNL     1     -29.146 -14.060  15.042  0.00  0.00    +0.029 A 
ATOM     11  N   UNL     1     -32.910 -12.070  18.728  0.00  0.00    -0.325 N 
ATOM     12  H   UNL     1     -33.805 -11.715  18.320  0.00  0.00    +0.148 HD
ENDROOT
BRANCH   1  14
ATOM     13  N   UNL     1     -27.840 -15.062  11.938  0.00  0.00    -0.191 NA
ATOM     14  C   UNL     1     -28.589 -14.656  12.720  0.00  0.00    +0.099 C 
ENDBRANCH   1  14
BRANCH  11  15
ATOM     15  C   UNL     1     -32.784 -12.063  20.186  0.00  0.00    +0.138 C 
BRANCH  15  16
ATOM     16  C   UNL     1     -32.994 -10.675  20.732  0.00  0.00    -0.028 A 
ATOM     17  C   UNL     1     -34.097 -10.392  21.553  0.00  0.00    +0.005 A 
ATOM     18  C   UNL     1     -34.284  -9.105  22.060  0.00  0.00    +0.003 A 
ATOM     19  C   UNL     1     -33.370  -8.092  21.763  0.00  0.00    +0.033 A 
ATOM     20  C   UNL     1     -32.251  -8.356  20.954  0.00  0.00    +0.127 A 
ATOM     21  C   UNL     1     -32.070  -9.657  20.445  0.00  0.00    +0.038 A 
BRANCH  20  22
ATOM     22  N   UNL     1     -31.309  -7.311  20.653  0.00  0.00    +0.056 N 
ATOM     23  O   UNL     1     -31.696  -5.991  20.676  0.00  0.00    -0.126 OA
ATOM     24  O   UNL     1     -30.125  -7.584  20.362  0.00  0.00    -0.126 OA
ENDBRANCH  20  22
ENDBRANCH  15  16
ENDBRANCH  11  15
TORSDOF 4
ENDMDL
MODEL 4
REMARK VINA RESULT:    -3.847      3.443      5.297
REMARK INTER + INTRA:          -5.082
REMARK INTER:                  -4.673
REMARK INTRA:                  -0.409
REMARK UNBOUND:                -0.335
REMARK  Name = 
REMARK  4 active torsions:
REMARK  status: ('A' for Active; 'I' for Inactive)
REMARK    1  A    between atoms: C_2  and  C_3
REMARK    2  A    between atoms: N_13  and  C_14
REMARK    3  A    between atoms: C_14  and  C_15
REMARK    4  A    between atoms: C_19  and  N_21
REMARK                            x       y       z     vdW  Elec       q    Type
REMARK                         _______ _______ _______ _____ _____    ______ ____
ROOT
ATOM      1  C   UNL     1     -31.597  -7.514  20.220  0.00  0.00    +0.052 A 
ATOM      2  C   UNL     1     -32.834  -7.772  19.614  0.00  0.00    +0.021 A 
ATOM      3  C   UNL     1     -33.052  -8.978  18.942  0.00  0.00    +0.029 A 
ATOM      4  C   UNL     1     -32.034  -9.935  18.872  0.00  0.00    +0.073 A 
ATOM      5  N   UNL     1     -32.242 -11.108  18.217  0.00  0.00    -0.232 NA
ATOM      6  C   UNL     1     -31.281 -12.068  18.120  0.00  0.00    +0.120 A 
ATOM      7  C   UNL     1     -30.029 -11.850  18.722  0.00  0.00    +0.044 A 
ATOM      8  C   UNL     1     -29.784 -10.654  19.400  0.00  0.00    +0.013 A 
ATOM      9  C   UNL     1     -30.786  -9.681  19.482  0.00  0.00    +0.002 A 
ATOM     10  C   UNL     1     -30.573  -8.469  20.155  0.00  0.00    +0.029 A 
ATOM     11  N   UNL     1     -31.584 -13.280  17.407  0.00  0.00    -0.325 N 
ATOM     12  H   UNL     1     -32.562 -13.414  17.066  0.00  0.00    +0.148 HD
ENDROOT
BRANCH   1  14
ATOM     13  N   UNL     1     -31.204  -5.271  21.466  0.00  0.00    -0.191 NA
ATOM     14  C   UNL     1     -31.379  -6.270  20.911  0.00  0.00    +0.099 C 
ENDBRANCH   1  14
BRANCH  11  15
ATOM     15  C   UNL     1     -30.604 -14.315  17.072  0.00  0.00    +0.138 C 
BRANCH  15  16
ATOM     16  C   UNL     1     -30.312 -14.314  15.595  0.00  0.00    -0.028 A 
ATOM     17  C   UNL     1     -29.119 -14.868  15.104  0.00  0.00    +0.005 A 
ATOM     18  C   UNL     1     -28.856 -14.868  13.733  0.00  0.00    +0.003 A 
ATOM     19  C   UNL     1     -29.781 -14.326  12.839  0.00  0.00    +0.033 A 
ATOM     20  C   UNL     1     -30.987 -13.778  13.307  0.00  0.00    +0.127 A 
ATOM     21  C   UNL     1     -31.246 -13.781  14.691  0.00  0.00    +0.038 A 
BRANCH  20  22
ATOM     22  N   UNL     1     -31.942 -13.224  12.383  0.00  0.00    +0.056 N 
ATOM     23  O   UNL     1     -33.027 -13.963  11.971  0.00  0.00    -0.126 OA
ATOM     24  O   UNL     1     -31.800 -12.066  11.938  0.00  0.00    -0.126 OA
ENDBRANCH  20  22
ENDBRANCH  15  16
ENDBRANCH  11  15
TORSDOF 4
ENDMDL
MODEL 5
REMARK VINA RESULT:    -3.782      2.901      8.190
REMARK INTER + INTRA:          -5.001
REMARK INTER:                  -4.739
REMARK INTRA:                  -0.262
REMARK UNBOUND:                -0.335
REMARK  Name = 
REMARK  4 active torsions:
REMARK  status: ('A' for Active; 'I' for Inactive)
REMARK    1  A    between atoms: C_2  and  C_3
REMARK    2  A    between atoms: N_13  and  C_14
REMARK    3  A    between atoms: C_14  and  C_15
REMARK    4  A    between atoms: C_19  and  N_21
REMARK                            x       y       z     vdW  Elec       q    Type
REMARK                         _______ _______ _______ _____ _____    ______ ____
ROOT
ATOM      1  C   UNL     1     -33.927 -10.847  14.304  0.00  0.00    +0.052 A 
ATOM      2  C   UNL     1     -33.776  -9.619  14.962  0.00  0.00    +0.021 A 
ATOM      3  C   UNL     1     -33.166  -9.564  16.220  0.00  0.00    +0.029 A 
ATOM      4  C   UNL     1     -32.705 -10.737  16.827  0.00  0.00    +0.073 A 
ATOM      5  N   UNL     1     -32.114 -10.686  18.051  0.00  0.00    -0.232 NA
ATOM      6  C   UNL     1     -31.652 -11.801  18.682  0.00  0.00    +0.120 A 
ATOM      7  C   UNL     1     -31.779 -13.051  18.051  0.00  0.00    +0.044 A 
ATOM      8  C   UNL     1     -32.383 -13.135  16.795  0.00  0.00    +0.013 A 
ATOM      9  C   UNL     1     -32.854 -11.976  16.168  0.00  0.00    +0.002 A 
ATOM     10  C   UNL     1     -33.466 -12.026  14.907  0.00  0.00    +0.029 A 
ATOM     11  N   UNL     1     -31.043 -11.658  19.977  0.00  0.00    -0.325 N 
ATOM     12  H   UNL     1     -30.898 -10.691  20.345  0.00  0.00    +0.148 HD
ENDROOT
BRANCH   1  14
ATOM     13  N   UNL     1     -35.058 -10.938  11.969  0.00  0.00    -0.191 NA
ATOM     14  C   UNL     1     -34.554 -10.898  13.010  0.00  0.00    +0.099 C 
ENDBRANCH   1  14
BRANCH  11  15
ATOM     15  C   UNL     1     -30.663 -12.774  20.845  0.00  0.00    +0.138 C 
BRANCH  15  16
ATOM     16  C   UNL     1     -29.192 -13.072  20.716  0.00  0.00    -0.028 A 
ATOM     17  C   UNL     1     -28.618 -14.145  21.417  0.00  0.00    +0.005 A 
ATOM     18  C   UNL     1     -27.255 -14.419  21.289  0.00  0.00    +0.003 A 
ATOM     19  C   UNL     1     -26.455 -13.635  20.456  0.00  0.00    +0.033 A 
ATOM     20  C   UNL     1     -27.011 -12.565  19.735  0.00  0.00    +0.127 A 
ATOM     21  C   UNL     1     -28.386 -12.293  19.869  0.00  0.00    +0.038 A 
BRANCH  20  22
ATOM     22  N   UNL     1     -26.184 -11.761  18.874  0.00  0.00    +0.056 N 
ATOM     23  O   UNL     1     -26.751 -10.959  17.910  0.00  0.00    -0.126 OA
ATOM     24  O   UNL     1     -24.940 -11.778  18.984  0.00  0.00    -0.126 OA
ENDBRANCH  20  22
ENDBRANCH  15  16
ENDBRANCH  11  15
TORSDOF 4
ENDMDL
MODEL 6
REMARK VINA RESULT:    -3.657      4.290      6.506
REMARK INTER + INTRA:          -4.846
REMARK INTER:                  -4.379
REMARK INTRA:                  -0.467
REMARK UNBOUND:                -0.335
REMARK  Name = 
REMARK  4 active torsions:
REMARK  status: ('A' for Active; 'I' for Inactive)
REMARK    1  A    between atoms: C_2  and  C_3
REMARK    2  A    between atoms: N_13  and  C_14
REMARK    3  A    between atoms: C_14  and  C_15
REMARK    4  A    between atoms: C_19  and  N_21
REMARK                            x       y       z     vdW  Elec       q    Type
REMARK                         _______ _______ _______ _____ _____    ______ ____
ROOT
ATOM      1  C   UNL     1     -30.083 -14.271  14.385  0.00  0.00    +0.052 A 
ATOM      2  C   UNL     1     -29.085 -14.492  15.343  0.00  0.00    +0.021 A 
ATOM      3  C   UNL     1     -29.269 -14.068  16.663  0.00  0.00    +0.029 A 
ATOM      4  C   UNL     1     -30.452 -13.421  17.033  0.00  0.00    +0.073 A 
ATOM      5  N   UNL     1     -30.633 -13.006  18.315  0.00  0.00    -0.232 NA
ATOM      6  C   UNL     1     -31.767 -12.370  18.721  0.00  0.00    +0.120 A 
ATOM      7  C   UNL     1     -32.795 -12.136  17.790  0.00  0.00    +0.044 A 
ATOM      8  C   UNL     1     -32.638 -12.548  16.466  0.00  0.00    +0.013 A 
ATOM      9  C   UNL     1     -31.461 -13.196  16.071  0.00  0.00    +0.002 A 
ATOM     10  C   UNL     1     -31.272 -13.623  14.749  0.00  0.00    +0.029 A 
ATOM     11  N   UNL     1     -31.875 -11.962  20.096  0.00  0.00    -0.325 N 
ATOM     12  H   UNL     1     -31.114 -12.250  20.752  0.00  0.00    +0.148 HD
ENDROOT
BRANCH   1  14
ATOM     13  N   UNL     1     -29.731 -15.062  11.938  0.00  0.00    -0.191 NA
ATOM     14  C   UNL     1     -29.888 -14.709  13.028  0.00  0.00    +0.099 C 
ENDBRANCH   1  14
BRANCH  11  15
ATOM     15  C   UNL     1     -32.947 -11.121  20.633  0.00  0.00    +0.138 C 
BRANCH  15  16
ATOM     16  C   UNL     1     -32.604  -9.662  20.484  0.00  0.00    -0.028 A 
ATOM     17  C   UNL     1     -31.424  -9.146  21.043  0.00  0.00    +0.005 A 
ATOM     18  C   UNL     1     -31.109  -7.795  20.897  0.00  0.00    +0.003 A 
ATOM     19  C   UNL     1     -31.960  -6.947  20.186  0.00  0.00    +0.033 A 
ATOM     20  C   UNL     1     -33.139  -7.443  19.606  0.00  0.00    +0.127 A 
ATOM     21  C   UNL     1     -33.451  -8.808  19.758  0.00  0.00    +0.038 A 
BRANCH  20  22
ATOM     22  N   UNL     1     -34.013  -6.568  18.870  0.00  0.00    +0.056 N 
ATOM     23  O   UNL     1     -34.849  -7.070  17.899  0.00  0.00    -0.126 OA
ATOM     24  O   UNL     1     -34.026  -5.340  19.097  0.00  0.00    -0.126 OA
ENDBRANCH  20  22
ENDBRANCH  15  16
ENDBRANCH  11  15
TORSDOF 4
ENDMDL
MODEL 7
REMARK VINA RESULT:    -3.526      4.131      5.332
REMARK INTER + INTRA:          -4.685
REMARK INTER:                  -4.905
REMARK INTRA:                   0.220
REMARK UNBOUND:                -0.335
REMARK  Name = 
REMARK  4 active torsions:
REMARK  status: ('A' for Active; 'I' for Inactive)
REMARK    1  A    between atoms: C_2  and  C_3
REMARK    2  A    between atoms: N_13  and  C_14
REMARK    3  A    between atoms: C_14  and  C_15
REMARK    4  A    between atoms: C_19  and  N_21
REMARK                            x       y       z     vdW  Elec       q    Type
REMARK                         _______ _______ _______ _____ _____    ______ ____
ROOT
ATOM      1  C   UNL     1     -32.367  -8.530  20.154  0.00  0.00    +0.052 A 
ATOM      2  C   UNL     1     -33.482  -9.356  20.342  0.00  0.00    +0.021 A 
ATOM      3  C   UNL     1     -33.909 -10.207  19.318  0.00  0.00    +0.029 A 
ATOM      4  C   UNL     1     -33.223 -10.236  18.099  0.00  0.00    +0.073 A 
ATOM      5  N   UNL     1     -33.638 -11.061  17.101  0.00  0.00    -0.232 NA
ATOM      6  C   UNL     1     -33.004 -11.122  15.897  0.00  0.00    +0.120 A 
ATOM      7  C   UNL     1     -31.876 -10.312  15.672  0.00  0.00    +0.044 A 
ATOM      8  C   UNL     1     -31.428  -9.453  16.677  0.00  0.00    +0.013 A 
ATOM      9  C   UNL     1     -32.099  -9.405  17.905  0.00  0.00    +0.002 A 
ATOM     10  C   UNL     1     -31.674  -8.554  18.936  0.00  0.00    +0.029 A 
ATOM     11  N   UNL     1     -33.510 -12.020  14.894  0.00  0.00    -0.325 N 
ATOM     12  H   UNL     1     -34.294 -12.658  15.161  0.00  0.00    +0.148 HD
ENDROOT
BRANCH   1  14
ATOM     13  N   UNL     1     -31.582  -6.954  22.062  0.00  0.00    -0.191 NA
ATOM     14  C   UNL     1     -31.931  -7.656  21.212  0.00  0.00    +0.099 C 
ENDBRANCH   1  14
BRANCH  11  15
ATOM     15  C   UNL     1     -33.046 -12.065  13.506  0.00  0.00    +0.138 C 
BRANCH  15  16
ATOM     16  C   UNL     1     -31.958 -13.093  13.342  0.00  0.00    -0.028 A 
ATOM     17  C   UNL     1     -31.771 -13.743  12.112  0.00  0.00    +0.005 A 
ATOM     18  C   UNL     1     -30.758 -14.691  11.965  0.00  0.00    +0.003 A 
ATOM     19  C   UNL     1     -29.916 -14.994  13.037  0.00  0.00    +0.033 A 
ATOM     20  C   UNL     1     -30.076 -14.346  14.273  0.00  0.00    +0.127 A 
ATOM     21  C   UNL     1     -31.101 -13.391  14.415  0.00  0.00    +0.038 A 
BRANCH  20  22
ATOM     22  N   UNL     1     -29.204 -14.657  15.376  0.00  0.00    +0.056 N 
ATOM     23  O   UNL     1     -29.724 -14.999  16.603  0.00  0.00    -0.126 OA
ATOM     24  O   UNL     1     -27.963 -14.618  15.239  0.00  0.00    -0.126 OA
ENDBRANCH  20  22
ENDBRANCH  15  16
ENDBRANCH  11  15
TORSDOF 4
ENDMDL
