MODEL 1
REMARK VINA RESULT:    -4.947      0.000      0.000
REMARK INTER + INTRA:          -6.432
REMARK INTER:                  -6.104
REMARK INTRA:                  -0.328
REMARK UNBOUND:                -0.328
REMARK  Name = 
REMARK  4 active torsions:
REMARK  status: ('A' for Active; 'I' for Inactive)
REMARK    1  A    between atoms: C_2  and  C_3
REMARK    2  A    between atoms: N_13  and  C_14
REMARK    3  A    between atoms: C_14  and  C_15
REMARK    4  A    between atoms: C_19  and  N_21
REMARK                            x       y       z     vdW  Elec       q    Type
REMARK                         _______ _______ _______ _____ _____    ______ ____
ROOT
ATOM      1  C   UNL     1     -27.274 -13.114  20.161  0.00  0.00    +0.052 A 
ATOM      2  C   UNL     1     -28.436 -13.612  20.766  0.00  0.00    +0.021 A 
ATOM      3  C   UNL     1     -29.695 -13.181  20.335  0.00  0.00    +0.029 A 
ATOM      4  C   UNL     1     -29.799 -12.250  19.298  0.00  0.00    +0.073 A 
ATOM      5  N   UNL     1     -31.022 -11.827  18.878  0.00  0.00    -0.232 NA
ATOM      6  C   UNL     1     -31.173 -10.919  17.874  0.00  0.00    +0.120 A 
ATOM      7  C   UNL     1     -30.031 -10.402  17.238  0.00  0.00    +0.044 A 
ATOM      8  C   UNL     1     -28.762 -10.814  17.648  0.00  0.00    +0.013 A 
ATOM      9  C   UNL     1     -28.632 -11.745  18.685  0.00  0.00    +0.002 A 
ATOM     10  C   UNL     1     -27.372 -12.181  19.121  0.00  0.00    +0.029 A 
ATOM     11  N   UNL     1     -32.503 -10.524  17.495  0.00  0.00    -0.325 N 
ATOM     12  H   UNL     1     -33.306 -11.018  17.946  0.00  0.00    +0.148 HD
ENDROOT
BRANCH   1  14
ATOM     13  N   UNL     1     -24.943 -13.921  20.968  0.00  0.00    -0.191 NA
ATOM     14  C   UNL     1     -25.981 -13.562  20.609  0.00  0.00    +0.099 C 
ENDBRANCH   1  14
BRANCH  11  15
ATOM     15  C   UNL     1     -32.815  -9.439  16.563  0.00  0.00    +0.138 C 
BRANCH  15  16
ATOM     16  C   UNL     1     -33.455  -9.979  15.311  0.00  0.00    -0.028 A 
ATOM     17  C   UNL     1     -34.477  -9.264  14.668  0.00  0.00    +0.005 A 
ATOM     18  C   UNL     1     -35.062  -9.767  13.505  0.00  0.00    +0.003 A 
ATOM     19  C   UNL     1     -34.630 -10.981  12.968  0.00  0.00    +0.033 A 
ATOM     20  C   UNL     1     -33.599 -11.707  13.588  0.00  0.00    +0.127 A 
ATOM     21  C   UNL     1     -33.013 -11.194  14.761  0.00  0.00    +0.038 A 
BRANCH  20  22
ATOM     22  N   UNL     1     -33.152 -12.956  13.030  0.00  0.00    +0.056 N 
ATOM     23  O   UNL     1     -31.972 -13.527  13.450  0.00  0.00    -0.126 OA
ATOM     24  O   UNL     1     -33.823 -13.542  12.155  0.00  0.00    -0.126 OA
ENDBRANCH  20  22
ENDBRANCH  15  16
ENDBRANCH  11  15
TORSDOF 4
ENDMDL
MODEL 2
REMARK VINA RESULT:    -4.306      1.550      2.224
REMARK INTER + INTRA:          -5.641
REMARK INTER:                  -5.418
REMARK INTRA:                  -0.223
REMARK UNBOUND:                -0.328
REMARK  Name = 
REMARK  4 active torsions:
REMARK  status: ('A' for Active; 'I' for Inactive)
REMARK    1  A    between atoms: C_2  and  C_3
REMARK    2  A    between atoms: N_13  and  C_14
REMARK    3  A    between atoms: C_14  and  C_15
REMARK    4  A    between atoms: C_19  and  N_21
REMARK                            x       y       z     vdW  Elec       q    Type
REMARK                         _______ _______ _______ _____ _____    ______ ____
ROOT
ATOM      1  C   UNL     1     -27.350 -13.265  20.237  0.00  0.00    +0.052 A 
ATOM      2  C   UNL     1     -26.661 -12.416  19.360  0.00  0.00    +0.021 A 
ATOM      3  C   UNL     1     -27.356 -11.707  18.375  0.00  0.00    +0.029 A 
ATOM      4  C   UNL     1     -28.743 -11.842  18.261  0.00  0.00    +0.073 A 
ATOM      5  N   UNL     1     -29.421 -11.155  17.303  0.00  0.00    -0.232 NA
ATOM      6  C   UNL     1     -30.771 -11.257  17.152  0.00  0.00    +0.120 A 
ATOM      7  C   UNL     1     -31.498 -12.093  18.017  0.00  0.00    +0.044 A 
ATOM      8  C   UNL     1     -30.830 -12.813  19.010  0.00  0.00    +0.013 A 
ATOM      9  C   UNL     1     -29.442 -12.695  19.142  0.00  0.00    +0.002 A 
ATOM     10  C   UNL     1     -28.740 -13.405  20.129  0.00  0.00    +0.029 A 
ATOM     11  N   UNL     1     -31.408 -10.497  16.110  0.00  0.00    -0.325 N 
ATOM     12  H   UNL     1     -30.820  -9.826  15.566  0.00  0.00    +0.148 HD
ENDROOT
BRANCH   1  14
ATOM     13  N   UNL     1     -26.051 -14.577  22.062  0.00  0.00    -0.191 NA
ATOM     14  C   UNL     1     -26.630 -13.992  21.249  0.00  0.00    +0.099 C 
ENDBRANCH   1  14
BRANCH  11  15
ATOM     15  C   UNL     1     -32.811 -10.638  15.717  0.00  0.00    +0.138 C 
BRANCH  15  16
ATOM     16  C   UNL     1     -32.938 -11.509  14.496  0.00  0.00    -0.028 A 
ATOM     17  C   UNL     1     -34.127 -11.523  13.750  0.00  0.00    +0.005 A 
ATOM     18  C   UNL     1     -34.236 -12.329  12.616  0.00  0.00    +0.003 A 
ATOM     19  C   UNL     1     -33.160 -13.121  12.209  0.00  0.00    +0.033 A 
ATOM     20  C   UNL     1     -31.956 -13.113  12.933  0.00  0.00    +0.127 A 
ATOM     21  C   UNL     1     -31.853 -12.297  14.076  0.00  0.00    +0.038 A 
BRANCH  20  22
ATOM     22  N   UNL     1     -30.847 -13.926  12.509  0.00  0.00    +0.056 N 
ATOM     23  O   UNL     1     -29.556 -13.467  12.631  0.00  0.00    -0.126 OA
ATOM     24  O   UNL     1     -31.037 -15.061  12.021  0.00  0.00    -0.126 OA
ENDBRANCH  20  22
ENDBRANCH  15  16
ENDBRANCH  11  15
TORSDOF 4
ENDMDL
MODEL 3
REMARK VINA RESULT:    -4.250      4.643      6.197
REMARK INTER + INTRA:          -5.571
REMARK INTER:                  -5.341
REMARK INTRA:                  -0.230
REMARK UNBOUND:                -0.328
REMARK  Name = 
REMARK  4 active torsions:
REMARK  status: ('A' for Active; 'I' for Inactive)
REMARK    1  A    between atoms: C_2  and  C_3
REMARK    2  A    between atoms: N_13  and  C_14
REMARK    3  A    between atoms: C_14  and  C_15
REMARK    4  A    between atoms: C_19  and  N_21
REMARK                            x       y       z     vdW  Elec       q    Type
REMARK                         _______ _______ _______ _____ _____    ______ ____
ROOT
ATOM      1  C   UNL     1     -30.009 -14.153  13.769  0.00  0.00    +0.052 A 
ATOM      2  C   UNL     1     -30.077 -14.787  15.017  0.00  0.00    +0.021 A 
ATOM      3  C   UNL     1     -30.936 -14.302  16.007  0.00  0.00    +0.029 A 
ATOM      4  C   UNL     1     -31.733 -13.180  15.756  0.00  0.00    +0.073 A 
ATOM      5  N   UNL     1     -32.569 -12.705  16.718  0.00  0.00    -0.232 NA
ATOM      6  C   UNL     1     -33.361 -11.615  16.520  0.00  0.00    +0.120 A 
ATOM      7  C   UNL     1     -33.327 -10.956  15.278  0.00  0.00    +0.044 A 
ATOM      8  C   UNL     1     -32.477 -11.419  14.271  0.00  0.00    +0.013 A 
ATOM      9  C   UNL     1     -31.669 -12.538  14.500  0.00  0.00    +0.002 A 
ATOM     10  C   UNL     1     -30.804 -13.029  13.510  0.00  0.00    +0.029 A 
ATOM     11  N   UNL     1     -34.214 -11.177  17.593  0.00  0.00    -0.325 N 
ATOM     12  H   UNL     1     -34.258 -11.768  18.453  0.00  0.00    +0.148 HD
ENDROOT
BRANCH   1  14
ATOM     13  N   UNL     1     -28.409 -15.062  11.938  0.00  0.00    -0.191 NA
ATOM     14  C   UNL     1     -29.121 -14.657  12.754  0.00  0.00    +0.099 C 
ENDBRANCH   1  14
BRANCH  11  15
ATOM     15  C   UNL     1     -34.982  -9.931  17.589  0.00  0.00    +0.138 C 
BRANCH  15  16
ATOM     16  C   UNL     1     -34.200  -8.821  18.241  0.00  0.00    -0.028 A 
ATOM     17  C   UNL     1     -34.754  -7.538  18.368  0.00  0.00    +0.005 A 
ATOM     18  C   UNL     1     -34.027  -6.515  18.978  0.00  0.00    +0.003 A 
ATOM     19  C   UNL     1     -32.745  -6.763  19.475  0.00  0.00    +0.033 A 
ATOM     20  C   UNL     1     -32.176  -8.043  19.371  0.00  0.00    +0.127 A 
ATOM     21  C   UNL     1     -32.916  -9.071  18.754  0.00  0.00    +0.038 A 
BRANCH  20  22
ATOM     22  N   UNL     1     -30.857  -8.297  19.887  0.00  0.00    +0.056 N 
ATOM     23  O   UNL     1     -30.345  -9.574  19.899  0.00  0.00    -0.126 OA
ATOM     24  O   UNL     1     -30.156  -7.365  20.336  0.00  0.00    -0.126 OA
ENDBRANCH  20  22
ENDBRANCH  15  16
ENDBRANCH  11  15
TORSDOF 4
ENDMDL
MODEL 4
REMARK VINA RESULT:    -4.245      3.105      3.683
REMARK INTER + INTRA:          -5.565
REMARK INTER:                  -5.173
REMARK INTRA:                  -0.392
REMARK UNBOUND:                -0.328
REMARK  Name = 
REMARK  4 active torsions:
REMARK  status: ('A' for Active; 'I' for Inactive)
REMARK    1  A    between atoms: C_2  and  C_3
REMARK    2  A    between atoms: N_13  and  C_14
REMARK    3  A    between atoms: C_14  and  C_15
REMARK    4  A    between atoms: C_19  and  N_21
REMARK                            x       y       z     vdW  Elec       q    Type
REMARK                         _______ _______ _______ _____ _____    ______ ____
ROOT
ATOM      1  C   UNL     1     -27.416 -13.380  20.246  0.00  0.00    +0.052 A 
ATOM      2  C   UNL     1     -28.416 -13.331  21.226  0.00  0.00    +0.021 A 
ATOM      3  C   UNL     1     -29.753 -13.144  20.860  0.00  0.00    +0.029 A 
ATOM      4  C   UNL     1     -30.097 -13.005  19.511  0.00  0.00    +0.073 A 
ATOM      5  N   UNL     1     -31.396 -12.821  19.153  0.00  0.00    -0.232 NA
ATOM      6  C   UNL     1     -31.779 -12.678  17.853  0.00  0.00    +0.120 A 
ATOM      7  C   UNL     1     -30.805 -12.729  16.840  0.00  0.00    +0.044 A 
ATOM      8  C   UNL     1     -29.462 -12.914  17.177  0.00  0.00    +0.013 A 
ATOM      9  C   UNL     1     -29.093 -13.054  18.520  0.00  0.00    +0.002 A 
ATOM     10  C   UNL     1     -27.754 -13.241  18.893  0.00  0.00    +0.029 A 
ATOM     11  N   UNL     1     -33.174 -12.484  17.562  0.00  0.00    -0.325 N 
ATOM     12  H   UNL     1     -33.852 -12.550  18.354  0.00  0.00    +0.148 HD
ENDROOT
BRANCH   1  14
ATOM     13  N   UNL     1     -24.938 -13.728  20.937  0.00  0.00    -0.191 NA
ATOM     14  C   UNL     1     -26.042 -13.572  20.629  0.00  0.00    +0.099 C 
ENDBRANCH   1  14
BRANCH  11  15
ATOM     15  C   UNL     1     -33.709 -12.143  16.242  0.00  0.00    +0.138 C 
BRANCH  15  16
ATOM     16  C   UNL     1     -34.056 -10.679  16.171  0.00  0.00    -0.028 A 
ATOM     17  C   UNL     1     -34.296 -10.064  14.932  0.00  0.00    +0.005 A 
ATOM     18  C   UNL     1     -34.622  -8.708  14.873  0.00  0.00    +0.003 A 
ATOM     19  C   UNL     1     -34.722  -7.956  16.045  0.00  0.00    +0.033 A 
ATOM     20  C   UNL     1     -34.499  -8.554  17.297  0.00  0.00    +0.127 A 
ATOM     21  C   UNL     1     -34.169  -9.923  17.349  0.00  0.00    +0.038 A 
BRANCH  20  22
ATOM     22  N   UNL     1     -34.606  -7.778  18.504  0.00  0.00    +0.056 N 
ATOM     23  O   UNL     1     -34.421  -8.368  19.733  0.00  0.00    -0.126 OA
ATOM     24  O   UNL     1     -34.871  -6.559  18.457  0.00  0.00    -0.126 OA
ENDBRANCH  20  22
ENDBRANCH  15  16
ENDBRANCH  11  15
TORSDOF 4
ENDMDL
MODEL 5
REMARK VINA RESULT:    -3.855      3.435      5.314
REMARK INTER + INTRA:          -5.084
REMARK INTER:                  -4.668
REMARK INTRA:                  -0.415
REMARK UNBOUND:                -0.328
REMARK  Name = 
REMARK  4 active torsions:
REMARK  status: ('A' for Active; 'I' for Inactive)
REMARK    1  A    between atoms: C_2  and  C_3
REMARK    2  A    between atoms: N_13  and  C_14
REMARK    3  A    between atoms: C_14  and  C_15
REMARK    4  A    between atoms: C_19  and  N_21
REMARK                            x       y       z     vdW  Elec       q    Type
REMARK                         _______ _______ _______ _____ _____    ______ ____
ROOT
ATOM      1  C   UNL     1     -31.573  -7.471  20.221  0.00  0.00    +0.052 A 
ATOM      2  C   UNL     1     -32.805  -7.693  19.591  0.00  0.00    +0.021 A 
ATOM      3  C   UNL     1     -33.047  -8.896  18.921  0.00  0.00    +0.029 A 
ATOM      4  C   UNL     1     -32.058  -9.884  18.875  0.00  0.00    +0.073 A 
ATOM      5  N   UNL     1     -32.290 -11.054  18.222  0.00  0.00    -0.232 NA
ATOM      6  C   UNL     1     -31.357 -12.043  18.149  0.00  0.00    +0.120 A 
ATOM      7  C   UNL     1     -30.111 -11.861  18.774  0.00  0.00    +0.044 A 
ATOM      8  C   UNL     1     -29.842 -10.670  19.451  0.00  0.00    +0.013 A 
ATOM      9  C   UNL     1     -30.815  -9.665  19.508  0.00  0.00    +0.002 A 
ATOM     10  C   UNL     1     -30.578  -8.457  20.180  0.00  0.00    +0.029 A 
ATOM     11  N   UNL     1     -31.683 -13.249  17.435  0.00  0.00    -0.325 N 
ATOM     12  H   UNL     1     -32.659 -13.354  17.075  0.00  0.00    +0.148 HD
ENDROOT
BRANCH   1  14
ATOM     13  N   UNL     1     -31.134  -5.234  21.463  0.00  0.00    -0.191 NA
ATOM     14  C   UNL     1     -31.330  -6.230  20.910  0.00  0.00    +0.099 C 
ENDBRANCH   1  14
BRANCH  11  15
ATOM     15  C   UNL     1     -30.731 -14.316  17.124  0.00  0.00    +0.138 C 
BRANCH  15  16
ATOM     16  C   UNL     1     -30.389 -14.315  15.657  0.00  0.00    -0.028 A 
ATOM     17  C   UNL     1     -29.180 -14.867  15.207  0.00  0.00    +0.005 A 
ATOM     18  C   UNL     1     -28.871 -14.867  13.846  0.00  0.00    +0.003 A 
ATOM     19  C   UNL     1     -29.767 -14.327  12.921  0.00  0.00    +0.033 A 
ATOM     20  C   UNL     1     -30.989 -13.781  13.348  0.00  0.00    +0.127 A 
ATOM     21  C   UNL     1     -31.294 -13.783  14.723  0.00  0.00    +0.038 A 
BRANCH  20  22
ATOM     22  N   UNL     1     -31.913 -13.228  12.393  0.00  0.00    +0.056 N 
ATOM     23  O   UNL     1     -32.994 -13.961  11.961  0.00  0.00    -0.126 OA
ATOM     24  O   UNL     1     -31.748 -12.077  11.938  0.00  0.00    -0.126 OA
ENDBRANCH  20  22
ENDBRANCH  15  16
ENDBRANCH  11  15
TORSDOF 4
ENDMDL
MODEL 6
REMARK VINA RESULT:    -3.636      4.403      6.163
REMARK INTER + INTRA:          -4.813
REMARK INTER:                  -4.471
REMARK INTRA:                  -0.343
REMARK UNBOUND:                -0.328
REMARK  Name = 
REMARK  4 active torsions:
REMARK  status: ('A' for Active; 'I' for Inactive)
REMARK    1  A    between atoms: C_2  and  C_3
REMARK    2  A    between atoms: N_13  and  C_14
REMARK    3  A    between atoms: C_14  and  C_15
REMARK    4  A    between atoms: C_19  and  N_21
REMARK                            x       y       z     vdW  Elec       q    Type
REMARK                         _______ _______ _______ _____ _____    ______ ____
ROOT
ATOM      1  C   UNL     1     -34.276  -7.589  20.521  0.00  0.00    +0.052 A 
ATOM      2  C   UNL     1     -34.055  -8.854  21.081  0.00  0.00    +0.021 A 
ATOM      3  C   UNL     1     -33.820  -9.959  20.256  0.00  0.00    +0.029 A 
ATOM      4  C   UNL     1     -33.806  -9.805  18.866  0.00  0.00    +0.073 A 
ATOM      5  N   UNL     1     -33.581 -10.877  18.062  0.00  0.00    -0.232 NA
ATOM      6  C   UNL     1     -33.561 -10.777  16.703  0.00  0.00    +0.120 A 
ATOM      7  C   UNL     1     -33.771  -9.523  16.104  0.00  0.00    +0.044 A 
ATOM      8  C   UNL     1     -34.008  -8.403  16.904  0.00  0.00    +0.013 A 
ATOM      9  C   UNL     1     -34.028  -8.532  18.297  0.00  0.00    +0.002 A 
ATOM     10  C   UNL     1     -34.263  -7.428  19.129  0.00  0.00    +0.029 A 
ATOM     11  N   UNL     1     -33.318 -11.963  15.927  0.00  0.00    -0.325 N 
ATOM     12  H   UNL     1     -33.077 -12.841  16.439  0.00  0.00    +0.148 HD
ENDROOT
BRANCH   1  14
ATOM     13  N   UNL     1     -34.709  -5.545  22.062  0.00  0.00    -0.191 NA
ATOM     14  C   UNL     1     -34.516  -6.456  21.376  0.00  0.00    +0.099 C 
ENDBRANCH   1  14
BRANCH  11  15
ATOM     15  C   UNL     1     -33.440 -12.043  14.470  0.00  0.00    +0.138 C 
BRANCH  15  16
ATOM     16  C   UNL     1     -32.321 -12.865  13.886  0.00  0.00    -0.028 A 
ATOM     17  C   UNL     1     -32.353 -13.256  12.538  0.00  0.00    +0.005 A 
ATOM     18  C   UNL     1     -31.311 -14.013  12.001  0.00  0.00    +0.003 A 
ATOM     19  C   UNL     1     -30.224 -14.379  12.798  0.00  0.00    +0.033 A 
ATOM     20  C   UNL     1     -30.165 -13.987  14.146  0.00  0.00    +0.127 A 
ATOM     21  C   UNL     1     -31.221 -13.224  14.682  0.00  0.00    +0.038 A 
BRANCH  20  22
ATOM     22  N   UNL     1     -29.042 -14.362  14.965  0.00  0.00    +0.056 N 
ATOM     23  O   UNL     1     -27.866 -14.783  14.388  0.00  0.00    -0.126 OA
ATOM     24  O   UNL     1     -29.116 -14.315  16.211  0.00  0.00    -0.126 OA
ENDBRANCH  20  22
ENDBRANCH  15  16
ENDBRANCH  11  15
TORSDOF 4
ENDMDL
MODEL 7
REMARK VINA RESULT:    -3.627      4.950      7.158
REMARK INTER + INTRA:          -4.802
REMARK INTER:                  -4.365
REMARK INTRA:                  -0.438
REMARK UNBOUND:                -0.328
REMARK  Name = 
REMARK  4 active torsions:
REMARK  status: ('A' for Active; 'I' for Inactive)
REMARK    1  A    between atoms: C_2  and  C_3
REMARK    2  A    between atoms: N_13  and  C_14
REMARK    3  A    between atoms: C_14  and  C_15
REMARK    4  A    between atoms: C_19  and  N_21
REMARK                            x       y       z     vdW  Elec       q    Type
REMARK                         _______ _______ _______ _____ _____    ______ ____
ROOT
ATOM      1  C   UNL     1     -31.210 -13.523  13.385  0.00  0.00    +0.052 A 
ATOM      2  C   UNL     1     -32.425 -13.055  12.866  0.00  0.00    +0.021 A 
ATOM      3  C   UNL     1     -33.246 -12.225  13.636  0.00  0.00    +0.029 A 
ATOM      4  C   UNL     1     -32.859 -11.860  14.929  0.00  0.00    +0.073 A 
ATOM      5  N   UNL     1     -33.657 -11.056  15.681  0.00  0.00    -0.232 NA
ATOM      6  C   UNL     1     -33.323 -10.675  16.945  0.00  0.00    +0.120 A 
ATOM      7  C   UNL     1     -32.109 -11.119  17.498  0.00  0.00    +0.044 A 
ATOM      8  C   UNL     1     -31.269 -11.948  16.752  0.00  0.00    +0.013 A 
ATOM      9  C   UNL     1     -31.636 -12.329  15.456  0.00  0.00    +0.002 A 
ATOM     10  C   UNL     1     -30.815 -13.160  14.680  0.00  0.00    +0.029 A 
ATOM     11  N   UNL     1     -34.227  -9.825  17.672  0.00  0.00    -0.325 N 
ATOM     12  H   UNL     1     -35.065  -9.458  17.167  0.00  0.00    +0.148 HD
ENDROOT
BRANCH   1  14
ATOM     13  N   UNL     1     -29.692 -15.061  11.947  0.00  0.00    -0.191 NA
ATOM     14  C   UNL     1     -30.368 -14.376  12.588  0.00  0.00    +0.099 C 
ENDBRANCH   1  14
BRANCH  11  15
ATOM     15  C   UNL     1     -34.089  -9.481  19.089  0.00  0.00    +0.138 C 
BRANCH  15  16
ATOM     16  C   UNL     1     -33.713  -8.031  19.251  0.00  0.00    -0.028 A 
ATOM     17  C   UNL     1     -34.564  -7.018  18.782  0.00  0.00    +0.005 A 
ATOM     18  C   UNL     1     -34.213  -5.677  18.940  0.00  0.00    +0.003 A 
ATOM     19  C   UNL     1     -33.018  -5.332  19.573  0.00  0.00    +0.033 A 
ATOM     20  C   UNL     1     -32.157  -6.329  20.062  0.00  0.00    +0.127 A 
ATOM     21  C   UNL     1     -32.517  -7.681  19.899  0.00  0.00    +0.038 A 
BRANCH  20  22
ATOM     22  N   UNL     1     -30.927  -5.971  20.718  0.00  0.00    +0.056 N 
ATOM     23  O   UNL     1     -29.810  -6.765  20.591  0.00  0.00    -0.126 OA
ATOM     24  O   UNL     1     -30.853  -4.938  21.415  0.00  0.00    -0.126 OA
ENDBRANCH  20  22
ENDBRANCH  15  16
ENDBRANCH  11  15
TORSDOF 4
ENDMDL
