MODEL 1
REMARK VINA RESULT:    -1.181      0.000      0.000
REMARK INTER + INTRA:          -0.494
REMARK INTER:                  -1.527
REMARK INTRA:                   1.033
REMARK UNBOUND:                 1.033
REMARK  Name = 
REMARK  9 active torsions:
REMARK  status: ('A' for Active; 'I' for Inactive)
REMARK    1  A    between atoms: C_1  and  O_2
REMARK    2  A    between atoms: O_2  and  C_3
REMARK    3  A    between atoms: C_5  and  C_13
REMARK    4  A    between atoms: C_7  and  O_8
REMARK    5  A    between atoms: O_8  and  C_9
REMARK    6  A    between atoms: C_10  and  O_11
REMARK    7  A    between atoms: O_11  and  C_12
REMARK    8  A    between atoms: N_15  and  C_16
REMARK    9  A    between atoms: C_21  and  C_22
REMARK                            x       y       z     vdW  Elec       q    Type
REMARK                         _______ _______ _______ _____ _____    ______ ____
ROOT
ATOM      1  C   UNL     1     -31.192  -9.273  17.809  0.00  0.00    +0.248 C 
ATOM      2  O   UNL     1     -30.025  -9.113  17.356  0.00  0.00    -0.270 OA
ATOM      3  N   UNL     1     -32.020 -10.338  17.306  0.00  0.00    -0.281 N 
ATOM      4  H   UNL     1     -32.935 -10.533  17.768  0.00  0.00    +0.155 HD
ENDROOT
BRANCH   3   5
ATOM      5  C   UNL     1     -31.635 -11.214  16.233  0.00  0.00    +0.036 A 
ATOM      6  C   UNL     1     -32.472 -11.422  15.120  0.00  0.00    +0.027 A 
ATOM      7  C   UNL     1     -32.085 -12.298  14.101  0.00  0.00    +0.049 A 
ATOM      8  C   UNL     1     -30.875 -12.991  14.193  0.00  0.00    +0.143 A 
ATOM      9  O   UNL     1     -30.488 -13.857  13.164  0.00  0.00    -0.478 OA
ATOM     10  C   UNL     1     -29.450 -14.836  13.303  0.00  0.00    +0.256 C 
ATOM     11  C   UNL     1     -28.802 -15.062  11.938  0.00  0.00    +0.062 C 
ATOM     12  C   UNL     1     -28.432 -14.428  14.344  0.00  0.00    +0.258 C 
ATOM     13  O   UNL     1     -27.300 -14.980  14.377  0.00  0.00    -0.271 OA
ATOM     14  N   UNL     1     -28.787 -13.484  15.359  0.00  0.00    -0.279 N 
ATOM     15  C   UNL     1     -30.043 -12.802  15.302  0.00  0.00    +0.077 A 
ATOM     16  C   UNL     1     -30.427 -11.923  16.323  0.00  0.00    +0.050 A 
ATOM     17  H   UNL     1     -28.117 -13.289  16.136  0.00  0.00    +0.155 HD
ENDBRANCH   3   5
BRANCH   1  20
ATOM     18  C   UNL     1     -33.436  -6.934  19.814  0.00  0.00    +0.166 A 
ATOM     19  C   UNL     1     -32.973  -7.807  18.810  0.00  0.00    +0.062 A 
ATOM     20  C   UNL     1     -31.682  -8.353  18.863  0.00  0.00    +0.044 A 
ATOM     21  C   UNL     1     -30.856  -8.040  19.950  0.00  0.00    +0.062 A 
ATOM     22  C   UNL     1     -31.296  -7.171  20.963  0.00  0.00    +0.166 A 
ATOM     23  C   UNL     1     -32.582  -6.613  20.900  0.00  0.00    +0.204 A 
BRANCH  18  25
ATOM     24  C   UNL     1     -35.053  -5.103  19.233  0.00  0.00    +0.277 C 
ATOM     25  O   UNL     1     -34.728  -6.389  19.753  0.00  0.00    -0.491 OA
ENDBRANCH  18  25
BRANCH  22  26
ATOM     26  O   UNL     1     -30.480  -6.836  22.057  0.00  0.00    -0.491 OA
ATOM     27  C   UNL     1     -29.478  -5.824  22.040  0.00  0.00    +0.277 C 
ENDBRANCH  22  26
BRANCH  23  28
ATOM     28  O   UNL     1     -32.946  -5.748  21.951  0.00  0.00    -0.488 OA
ATOM     29  C   UNL     1     -34.126  -4.956  22.030  0.00  0.00    +0.277 C 
ENDBRANCH  23  28
ENDBRANCH   1  20
TORSDOF 5
ENDMDL
MODEL 2
REMARK VINA RESULT:    -0.731      1.813      2.598
REMARK INTER + INTRA:           0.088
REMARK INTER:                   0.206
REMARK INTRA:                  -0.118
REMARK UNBOUND:                 1.033
REMARK  Name = 
REMARK  9 active torsions:
REMARK  status: ('A' for Active; 'I' for Inactive)
REMARK    1  A    between atoms: C_1  and  O_2
REMARK    2  A    between atoms: O_2  and  C_3
REMARK    3  A    between atoms: C_5  and  C_13
REMARK    4  A    between atoms: C_7  and  O_8
REMARK    5  A    between atoms: O_8  and  C_9
REMARK    6  A    between atoms: C_10  and  O_11
REMARK    7  A    between atoms: O_11  and  C_12
REMARK    8  A    between atoms: N_15  and  C_16
REMARK    9  A    between atoms: C_21  and  C_22
REMARK                            x       y       z     vdW  Elec       q    Type
REMARK                         _______ _______ _______ _____ _____    ______ ____
ROOT
ATOM      1  C   UNL     1     -31.727 -10.299  17.612  0.00  0.00    +0.248 C 
ATOM      2  O   UNL     1     -30.478 -10.369  17.779  0.00  0.00    -0.270 OA
ATOM      3  N   UNL     1     -32.352 -11.023  16.537  0.00  0.00    -0.281 N 
ATOM      4  H   UNL     1     -33.394 -11.052  16.480  0.00  0.00    +0.155 HD
ENDROOT
BRANCH   3   5
ATOM      5  C   UNL     1     -31.627 -11.781  15.553  0.00  0.00    +0.036 A 
ATOM      6  C   UNL     1     -32.129 -11.961  14.250  0.00  0.00    +0.027 A 
ATOM      7  C   UNL     1     -31.415 -12.723  13.320  0.00  0.00    +0.049 A 
ATOM      8  C   UNL     1     -30.211 -13.331  13.685  0.00  0.00    +0.143 A 
ATOM      9  O   UNL     1     -29.496 -14.083  12.746  0.00  0.00    -0.478 OA
ATOM     10  C   UNL     1     -28.444 -14.991  13.096  0.00  0.00    +0.256 C 
ATOM     11  C   UNL     1     -27.449 -15.062  11.938  0.00  0.00    +0.062 C 
ATOM     12  C   UNL     1     -27.768 -14.593  14.389  0.00  0.00    +0.258 C 
ATOM     13  O   UNL     1     -26.637 -15.062  14.686  0.00  0.00    -0.271 OA
ATOM     14  N   UNL     1     -28.456 -13.761  15.327  0.00  0.00    -0.279 N 
ATOM     15  C   UNL     1     -29.712 -13.170  14.983  0.00  0.00    +0.077 A 
ATOM     16  C   UNL     1     -30.424 -12.404  15.916  0.00  0.00    +0.050 A 
ATOM     17  H   UNL     1     -28.027 -13.580  16.263  0.00  0.00    +0.155 HD
ENDBRANCH   3   5
BRANCH   1  20
ATOM     18  C   UNL     1     -33.719  -9.183  20.664  0.00  0.00    +0.166 A 
ATOM     19  C   UNL     1     -32.959  -9.974  19.780  0.00  0.00    +0.062 A 
ATOM     20  C   UNL     1     -32.527  -9.469  18.545  0.00  0.00    +0.044 A 
ATOM     21  C   UNL     1     -32.837  -8.146  18.205  0.00  0.00    +0.062 A 
ATOM     22  C   UNL     1     -33.594  -7.338  19.071  0.00  0.00    +0.166 A 
ATOM     23  C   UNL     1     -34.041  -7.850  20.299  0.00  0.00    +0.204 A 
BRANCH  18  25
ATOM     24  C   UNL     1     -35.057 -10.782  22.062  0.00  0.00    +0.277 C 
ATOM     25  O   UNL     1     -34.151  -9.695  21.898  0.00  0.00    -0.491 OA
ENDBRANCH  18  25
BRANCH  22  26
ATOM     26  O   UNL     1     -33.926  -6.013  18.745  0.00  0.00    -0.491 OA
ATOM     27  C   UNL     1     -35.015  -5.631  17.910  0.00  0.00    +0.277 C 
ENDBRANCH  22  26
BRANCH  23  28
ATOM     28  O   UNL     1     -34.798  -6.979  21.107  0.00  0.00    -0.488 OA
ATOM     29  C   UNL     1     -34.293  -6.042  22.052  0.00  0.00    +0.277 C 
ENDBRANCH  23  28
ENDBRANCH   1  20
TORSDOF 5
ENDMDL
MODEL 3
REMARK VINA RESULT:    -0.712      1.689      9.285
REMARK INTER + INTRA:           0.113
REMARK INTER:                   0.624
REMARK INTRA:                  -0.511
REMARK UNBOUND:                 1.033
REMARK  Name = 
REMARK  9 active torsions:
REMARK  status: ('A' for Active; 'I' for Inactive)
REMARK    1  A    between atoms: C_1  and  O_2
REMARK    2  A    between atoms: O_2  and  C_3
REMARK    3  A    between atoms: C_5  and  C_13
REMARK    4  A    between atoms: C_7  and  O_8
REMARK    5  A    between atoms: O_8  and  C_9
REMARK    6  A    between atoms: C_10  and  O_11
REMARK    7  A    between atoms: O_11  and  C_12
REMARK    8  A    between atoms: N_15  and  C_16
REMARK    9  A    between atoms: C_21  and  C_22
REMARK                            x       y       z     vdW  Elec       q    Type
REMARK                         _______ _______ _______ _____ _____    ______ ____
ROOT
ATOM      1  C   UNL     1     -31.606 -10.525  16.137  0.00  0.00    +0.248 C 
ATOM      2  O   UNL     1     -31.057  -9.401  15.973  0.00  0.00    -0.270 OA
ATOM      3  N   UNL     1     -32.739 -10.651  17.016  0.00  0.00    -0.281 N 
ATOM      4  H   UNL     1     -33.256 -11.557  17.054  0.00  0.00    +0.155 HD
ENDROOT
BRANCH   3   5
ATOM      5  C   UNL     1     -33.260  -9.573  17.812  0.00  0.00    +0.036 A 
ATOM      6  C   UNL     1     -34.587  -9.127  17.664  0.00  0.00    +0.027 A 
ATOM      7  C   UNL     1     -35.062  -8.061  18.434  0.00  0.00    +0.049 A 
ATOM      8  C   UNL     1     -34.214  -7.415  19.338  0.00  0.00    +0.143 A 
ATOM      9  O   UNL     1     -34.699  -6.356  20.114  0.00  0.00    -0.478 OA
ATOM     10  C   UNL     1     -33.851  -5.439  20.818  0.00  0.00    +0.256 C 
ATOM     11  C   UNL     1     -34.591  -4.938  22.057  0.00  0.00    +0.062 C 
ATOM     12  C   UNL     1     -32.524  -6.068  21.178  0.00  0.00    +0.258 C 
ATOM     13  O   UNL     1     -31.791  -5.546  22.061  0.00  0.00    -0.271 OA
ATOM     14  N   UNL     1     -32.048  -7.200  20.444  0.00  0.00    -0.279 N 
ATOM     15  C   UNL     1     -32.889  -7.842  19.482  0.00  0.00    +0.077 A 
ATOM     16  C   UNL     1     -32.412  -8.912  18.713  0.00  0.00    +0.050 A 
ATOM     17  H   UNL     1     -31.084  -7.561  20.625  0.00  0.00    +0.155 HD
ENDBRANCH   3   5
BRANCH   1  20
ATOM     18  C   UNL     1     -31.092 -13.211  13.481  0.00  0.00    +0.166 A 
ATOM     19  C   UNL     1     -31.606 -12.096  14.174  0.00  0.00    +0.062 A 
ATOM     20  C   UNL     1     -31.068 -11.697  15.407  0.00  0.00    +0.044 A 
ATOM     21  C   UNL     1     -29.984 -12.409  15.937  0.00  0.00    +0.062 A 
ATOM     22  C   UNL     1     -29.455 -13.524  15.265  0.00  0.00    +0.166 A 
ATOM     23  C   UNL     1     -30.005 -13.932  14.040  0.00  0.00    +0.204 A 
BRANCH  18  25
ATOM     24  C   UNL     1     -33.027 -13.629  11.938  0.00  0.00    +0.277 C 
ATOM     25  O   UNL     1     -31.637 -13.606  12.250  0.00  0.00    -0.491 OA
ENDBRANCH  18  25
BRANCH  22  26
ATOM     26  O   UNL     1     -28.376 -14.258  15.784  0.00  0.00    -0.491 OA
ATOM     27  C   UNL     1     -27.724 -13.978  17.019  0.00  0.00    +0.277 C 
ENDBRANCH  22  26
BRANCH  23  28
ATOM     28  O   UNL     1     -29.422 -15.061  13.431  0.00  0.00    -0.488 OA
ATOM     29  C   UNL     1     -28.414 -15.060  12.427  0.00  0.00    +0.277 C 
ENDBRANCH  23  28
ENDBRANCH   1  20
TORSDOF 5
ENDMDL
MODEL 4
REMARK VINA RESULT:     1.409      1.635      9.495
REMARK INTER + INTRA:           2.853
REMARK INTER:                   1.303
REMARK INTRA:                   1.551
REMARK UNBOUND:                 1.033
REMARK  Name = 
REMARK  9 active torsions:
REMARK  status: ('A' for Active; 'I' for Inactive)
REMARK    1  A    between atoms: C_1  and  O_2
REMARK    2  A    between atoms: O_2  and  C_3
REMARK    3  A    between atoms: C_5  and  C_13
REMARK    4  A    between atoms: C_7  and  O_8
REMARK    5  A    between atoms: O_8  and  C_9
REMARK    6  A    between atoms: C_10  and  O_11
REMARK    7  A    between atoms: O_11  and  C_12
REMARK    8  A    between atoms: N_15  and  C_16
REMARK    9  A    between atoms: C_21  and  C_22
REMARK                            x       y       z     vdW  Elec       q    Type
REMARK                         _______ _______ _______ _____ _____    ______ ____
ROOT
ATOM      1  C   UNL     1     -31.510 -11.176  16.229  0.00  0.00    +0.248 C 
ATOM      2  O   UNL     1     -32.720 -10.823  16.276  0.00  0.00    -0.270 OA
ATOM      3  N   UNL     1     -30.589 -10.725  17.239  0.00  0.00    -0.281 N 
ATOM      4  H   UNL     1     -29.621 -11.116  17.257  0.00  0.00    +0.155 HD
ENDROOT
BRANCH   3   5
ATOM      5  C   UNL     1     -30.936  -9.804  18.287  0.00  0.00    +0.036 A 
ATOM      6  C   UNL     1     -30.392  -9.925  19.579  0.00  0.00    +0.027 A 
ATOM      7  C   UNL     1     -30.764  -9.030  20.588  0.00  0.00    +0.049 A 
ATOM      8  C   UNL     1     -31.699  -8.025  20.324  0.00  0.00    +0.143 A 
ATOM      9  O   UNL     1     -32.060  -7.125  21.334  0.00  0.00    -0.478 OA
ATOM     10  C   UNL     1     -33.216  -6.282  21.266  0.00  0.00    +0.256 C 
ATOM     11  C   UNL     1     -32.942  -5.006  22.060  0.00  0.00    +0.062 C 
ATOM     12  C   UNL     1     -33.602  -5.976  19.836  0.00  0.00    +0.258 C 
ATOM     13  O   UNL     1     -34.371  -5.012  19.576  0.00  0.00    -0.271 OA
ATOM     14  N   UNL     1     -33.178  -6.845  18.781  0.00  0.00    -0.279 N 
ATOM     15  C   UNL     1     -32.257  -7.906  19.046  0.00  0.00    +0.077 A 
ATOM     16  C   UNL     1     -31.883  -8.800  18.033  0.00  0.00    +0.050 A 
ATOM     17  H   UNL     1     -33.538  -6.689  17.812  0.00  0.00    +0.155 HD
ENDBRANCH   3   5
BRANCH   1  20
ATOM     18  C   UNL     1     -31.491 -13.216  13.009  0.00  0.00    +0.166 A 
ATOM     19  C   UNL     1     -31.916 -12.373  14.055  0.00  0.00    +0.062 A 
ATOM     20  C   UNL     1     -31.066 -12.063  15.127  0.00  0.00    +0.044 A 
ATOM     21  C   UNL     1     -29.766 -12.582  15.135  0.00  0.00    +0.062 A 
ATOM     22  C   UNL     1     -29.320 -13.425  14.103  0.00  0.00    +0.166 A 
ATOM     23  C   UNL     1     -30.177 -13.748  13.039  0.00  0.00    +0.204 A 
BRANCH  18  25
ATOM     24  C   UNL     1     -33.766 -13.386  11.960  0.00  0.00    +0.277 C 
ATOM     25  O   UNL     1     -32.348 -13.524  11.941  0.00  0.00    -0.491 OA
ENDBRANCH  18  25
BRANCH  22  26
ATOM     26  O   UNL     1     -28.023 -13.966  14.097  0.00  0.00    -0.491 OA
ATOM     27  C   UNL     1     -27.576 -15.012  14.954  0.00  0.00    +0.277 C 
ENDBRANCH  22  26
BRANCH  23  28
ATOM     28  O   UNL     1     -29.657 -14.603  12.047  0.00  0.00    -0.488 OA
ATOM     29  C   UNL     1     -28.314 -15.062  11.941  0.00  0.00    +0.277 C 
ENDBRANCH  23  28
ENDBRANCH   1  20
TORSDOF 5
ENDMDL
