MODEL 1
REMARK VINA RESULT:    -3.699      0.000      0.000
REMARK INTER + INTRA:          -5.100
REMARK INTER:                  -4.564
REMARK INTRA:                  -0.536
REMARK UNBOUND:                -0.536
REMARK  Name = 
REMARK  6 active torsions:
REMARK  status: ('A' for Active; 'I' for Inactive)
REMARK    1  A    between atoms: C_1  and  C_2
REMARK    2  A    between atoms: C_2  and  C_3
REMARK    3  A    between atoms: C_3  and  C_4
REMARK    4  A    between atoms: C_3  and  N_6
REMARK    5  A    between atoms: C_4  and  C_5
REMARK    6  A    between atoms: C_10  and  N_14
REMARK                            x       y       z     vdW  Elec       q    Type
REMARK                         _______ _______ _______ _____ _____    ______ ____
ROOT
ATOM      1  N   UNL     1     -31.304 -12.967  19.886  0.00  0.00    -0.311 N 
ATOM      2  C   UNL     1     -29.876 -13.039  19.982  0.00  0.00    +0.217 A 
ATOM      3  N   UNL     1     -29.088 -12.356  19.111  0.00  0.00    -0.221 NA
ATOM      4  C   UNL     1     -27.735 -12.416  19.193  0.00  0.00    +0.150 A 
ATOM      5  C   UNL     1     -27.120 -13.181  20.194  0.00  0.00    +0.184 A 
ATOM      6  C   UNL     1     -27.954 -13.906  21.073  0.00  0.00    +0.152 A 
ATOM      7  N   UNL     1     -27.422 -14.792  22.062  0.00  0.00    -0.341 N 
ATOM      8  N   UNL     1     -29.305 -13.807  20.945  0.00  0.00    -0.198 NA
ATOM      9  H   UNL     1     -31.869 -13.493  20.592  0.00  0.00    +0.149 HD
ATOM     10  H   UNL     1     -28.065 -15.251  22.745  0.00  0.00    +0.144 HD
ATOM     11  H   UNL     1     -26.425 -15.096  22.058  0.00  0.00    +0.144 HD
ENDROOT
BRANCH   5  12
ATOM     12  N   UNL     1     -25.688 -13.182  20.310  0.00  0.00    +0.061 N 
ATOM     13  O   UNL     1     -24.938 -12.315  19.550  0.00  0.00    -0.126 OA
ATOM     14  O   UNL     1     -25.132 -13.803  21.240  0.00  0.00    -0.126 OA
ENDBRANCH   5  12
BRANCH   1  15
ATOM     15  C   UNL     1     -31.986 -12.161  18.865  0.00  0.00    +0.073 C 
BRANCH  15  17
ATOM     16  C   UNL     1     -32.440 -12.339  16.352  0.00  0.00    +0.006 C 
ATOM     17  C   UNL     1     -32.436 -13.075  17.693  0.00  0.00    +0.019 C 
ENDBRANCH  15  17
BRANCH  15  18
ATOM     18  C   UNL     1     -33.174 -11.411  19.513  0.00  0.00    +0.019 C 
ATOM     19  C   UNL     1     -32.999 -11.192  21.014  0.00  0.00    +0.006 C 
ENDBRANCH  15  18
ENDBRANCH   1  15
TORSDOF 4
ENDMDL
MODEL 2
REMARK VINA RESULT:    -3.685      1.926      2.253
REMARK INTER + INTRA:          -5.083
REMARK INTER:                  -4.416
REMARK INTRA:                  -0.668
REMARK UNBOUND:                -0.536
REMARK  Name = 
REMARK  6 active torsions:
REMARK  status: ('A' for Active; 'I' for Inactive)
REMARK    1  A    between atoms: C_1  and  C_2
REMARK    2  A    between atoms: C_2  and  C_3
REMARK    3  A    between atoms: C_3  and  C_4
REMARK    4  A    between atoms: C_3  and  N_6
REMARK    5  A    between atoms: C_4  and  C_5
REMARK    6  A    between atoms: C_10  and  N_14
REMARK                            x       y       z     vdW  Elec       q    Type
REMARK                         _______ _______ _______ _____ _____    ______ ____
ROOT
ATOM      1  N   UNL     1     -30.688 -11.840  17.794  0.00  0.00    -0.311 N 
ATOM      2  C   UNL     1     -29.496 -12.227  18.489  0.00  0.00    +0.217 A 
ATOM      3  N   UNL     1     -28.279 -11.782  18.080  0.00  0.00    -0.221 NA
ATOM      4  C   UNL     1     -27.145 -12.142  18.730  0.00  0.00    +0.150 A 
ATOM      5  C   UNL     1     -27.208 -12.976  19.854  0.00  0.00    +0.184 A 
ATOM      6  C   UNL     1     -28.478 -13.452  20.249  0.00  0.00    +0.152 A 
ATOM      7  N   UNL     1     -28.636 -14.386  21.321  0.00  0.00    -0.341 N 
ATOM      8  N   UNL     1     -29.582 -13.057  19.560  0.00  0.00    -0.198 NA
ATOM      9  H   UNL     1     -31.603 -12.191  18.159  0.00  0.00    +0.149 HD
ATOM     10  H   UNL     1     -29.595 -14.655  21.635  0.00  0.00    +0.144 HD
ATOM     11  H   UNL     1     -27.830 -14.908  21.728  0.00  0.00    +0.144 HD
ENDROOT
BRANCH   5  12
ATOM     12  N   UNL     1     -26.006 -13.295  20.573  0.00  0.00    +0.061 N 
ATOM     13  O   UNL     1     -26.070 -13.613  21.911  0.00  0.00    -0.126 OA
ATOM     14  O   UNL     1     -24.938 -13.496  19.958  0.00  0.00    -0.126 OA
ENDBRANCH   5  12
BRANCH   1  15
ATOM     15  C   UNL     1     -30.665 -10.950  16.625  0.00  0.00    +0.073 C 
BRANCH  15  17
ATOM     16  C   UNL     1     -30.986 -12.801  14.886  0.00  0.00    +0.006 C 
ATOM     17  C   UNL     1     -31.572 -11.533  15.507  0.00  0.00    +0.019 C 
ENDBRANCH  15  17
BRANCH  15  18
ATOM     18  C   UNL     1     -31.103  -9.530  17.054  0.00  0.00    +0.019 C 
ATOM     19  C   UNL     1     -32.620  -9.370  17.141  0.00  0.00    +0.006 C 
ENDBRANCH  15  18
ENDBRANCH   1  15
TORSDOF 4
ENDMDL
MODEL 3
REMARK VINA RESULT:    -3.672      3.152      4.458
REMARK INTER + INTRA:          -5.067
REMARK INTER:                  -4.466
REMARK INTRA:                  -0.601
REMARK UNBOUND:                -0.536
REMARK  Name = 
REMARK  6 active torsions:
REMARK  status: ('A' for Active; 'I' for Inactive)
REMARK    1  A    between atoms: C_1  and  C_2
REMARK    2  A    between atoms: C_2  and  C_3
REMARK    3  A    between atoms: C_3  and  C_4
REMARK    4  A    between atoms: C_3  and  N_6
REMARK    5  A    between atoms: C_4  and  C_5
REMARK    6  A    between atoms: C_10  and  N_14
REMARK                            x       y       z     vdW  Elec       q    Type
REMARK                         _______ _______ _______ _____ _____    ______ ____
ROOT
ATOM      1  N   UNL     1     -31.748 -12.934  14.897  0.00  0.00    -0.311 N 
ATOM      2  C   UNL     1     -30.943 -12.498  16.000  0.00  0.00    +0.217 A 
ATOM      3  N   UNL     1     -30.652 -11.182  16.168  0.00  0.00    -0.221 NA
ATOM      4  C   UNL     1     -29.892 -10.758  17.208  0.00  0.00    +0.150 A 
ATOM      5  C   UNL     1     -29.398 -11.677  18.144  0.00  0.00    +0.184 A 
ATOM      6  C   UNL     1     -29.686 -13.044  17.938  0.00  0.00    +0.152 A 
ATOM      7  N   UNL     1     -29.146 -14.067  18.780  0.00  0.00    -0.341 N 
ATOM      8  N   UNL     1     -30.456 -13.411  16.879  0.00  0.00    -0.198 NA
ATOM      9  H   UNL     1     -31.962 -13.955  14.821  0.00  0.00    +0.149 HD
ATOM     10  H   UNL     1     -29.443 -15.058  18.645  0.00  0.00    +0.144 HD
ATOM     11  H   UNL     1     -28.369 -13.882  19.451  0.00  0.00    +0.144 HD
ENDROOT
BRANCH   5  12
ATOM     12  N   UNL     1     -28.650 -11.207  19.277  0.00  0.00    +0.061 N 
ATOM     13  O   UNL     1     -29.287 -10.508  20.277  0.00  0.00    -0.126 OA
ATOM     14  O   UNL     1     -27.483 -11.607  19.472  0.00  0.00    -0.126 OA
ENDBRANCH   5  12
BRANCH   1  15
ATOM     15  C   UNL     1     -32.301 -12.000  13.908  0.00  0.00    +0.073 C 
BRANCH  15  17
ATOM     16  C   UNL     1     -33.487 -13.125  11.938  0.00  0.00    +0.006 C 
ATOM     17  C   UNL     1     -32.158 -12.602  12.483  0.00  0.00    +0.019 C 
ENDBRANCH  15  17
BRANCH  15  18
ATOM     18  C   UNL     1     -33.773 -11.687  14.266  0.00  0.00    +0.019 C 
ATOM     19  C   UNL     1     -34.008 -10.217  14.610  0.00  0.00    +0.006 C 
ENDBRANCH  15  18
ENDBRANCH   1  15
TORSDOF 4
ENDMDL
MODEL 4
REMARK VINA RESULT:    -3.584      3.409      4.882
REMARK INTER + INTRA:          -4.958
REMARK INTER:                  -4.416
REMARK INTRA:                  -0.542
REMARK UNBOUND:                -0.536
REMARK  Name = 
REMARK  6 active torsions:
REMARK  status: ('A' for Active; 'I' for Inactive)
REMARK    1  A    between atoms: C_1  and  C_2
REMARK    2  A    between atoms: C_2  and  C_3
REMARK    3  A    between atoms: C_3  and  C_4
REMARK    4  A    between atoms: C_3  and  N_6
REMARK    5  A    between atoms: C_4  and  C_5
REMARK    6  A    between atoms: C_10  and  N_14
REMARK                            x       y       z     vdW  Elec       q    Type
REMARK                         _______ _______ _______ _____ _____    ______ ____
ROOT
ATOM      1  N   UNL     1     -29.209 -13.927  15.332  0.00  0.00    -0.311 N 
ATOM      2  C   UNL     1     -29.345 -13.651  16.732  0.00  0.00    +0.217 A 
ATOM      3  N   UNL     1     -30.545 -13.792  17.354  0.00  0.00    -0.221 NA
ATOM      4  C   UNL     1     -30.684 -13.533  18.678  0.00  0.00    +0.150 A 
ATOM      5  C   UNL     1     -29.581 -13.123  19.439  0.00  0.00    +0.184 A 
ATOM      6  C   UNL     1     -28.348 -12.955  18.771  0.00  0.00    +0.152 A 
ATOM      7  N   UNL     1     -27.189 -12.446  19.438  0.00  0.00    -0.341 N 
ATOM      8  N   UNL     1     -28.266 -13.231  17.442  0.00  0.00    -0.198 NA
ATOM      9  H   UNL     1     -28.262 -13.824  14.903  0.00  0.00    +0.149 HD
ATOM     10  H   UNL     1     -26.276 -12.408  18.933  0.00  0.00    +0.144 HD
ATOM     11  H   UNL     1     -27.241 -11.994  20.377  0.00  0.00    +0.144 HD
ENDROOT
BRANCH   5  12
ATOM     12  N   UNL     1     -29.728 -12.918  20.853  0.00  0.00    +0.061 N 
ATOM     13  O   UNL     1     -28.650 -13.102  21.689  0.00  0.00    -0.126 OA
ATOM     14  O   UNL     1     -30.754 -12.370  21.308  0.00  0.00    -0.126 OA
ENDBRANCH   5  12
BRANCH   1  15
ATOM     15  C   UNL     1     -30.337 -14.379  14.506  0.00  0.00    +0.073 C 
BRANCH  15  17
ATOM     16  C   UNL     1     -31.719 -13.170  12.722  0.00  0.00    +0.006 C 
ATOM     17  C   UNL     1     -31.261 -13.174  14.181  0.00  0.00    +0.019 C 
ENDBRANCH  15  17
BRANCH  15  18
ATOM     18  C   UNL     1     -29.795 -15.062  13.229  0.00  0.00    +0.019 C 
ATOM     19  C   UNL     1     -28.271 -15.031  13.132  0.00  0.00    +0.006 C 
ENDBRANCH  15  18
ENDBRANCH   1  15
TORSDOF 4
ENDMDL
MODEL 5
REMARK VINA RESULT:    -3.567      3.412      4.847
REMARK INTER + INTRA:          -4.937
REMARK INTER:                  -4.320
REMARK INTRA:                  -0.618
REMARK UNBOUND:                -0.536
REMARK  Name = 
REMARK  6 active torsions:
REMARK  status: ('A' for Active; 'I' for Inactive)
REMARK    1  A    between atoms: C_1  and  C_2
REMARK    2  A    between atoms: C_2  and  C_3
REMARK    3  A    between atoms: C_3  and  C_4
REMARK    4  A    between atoms: C_3  and  N_6
REMARK    5  A    between atoms: C_4  and  C_5
REMARK    6  A    between atoms: C_10  and  N_14
REMARK                            x       y       z     vdW  Elec       q    Type
REMARK                         _______ _______ _______ _____ _____    ______ ____
ROOT
ATOM      1  N   UNL     1     -31.219 -13.977  15.365  0.00  0.00    -0.311 N 
ATOM      2  C   UNL     1     -30.778 -13.308  16.554  0.00  0.00    +0.217 A 
ATOM      3  N   UNL     1     -30.125 -12.119  16.478  0.00  0.00    -0.221 NA
ATOM      4  C   UNL     1     -29.703 -11.477  17.597  0.00  0.00    +0.150 A 
ATOM      5  C   UNL     1     -29.945 -12.028  18.862  0.00  0.00    +0.184 A 
ATOM      6  C   UNL     1     -30.600 -13.277  18.921  0.00  0.00    +0.152 A 
ATOM      7  N   UNL     1     -30.805 -13.968  20.157  0.00  0.00    -0.341 N 
ATOM      8  N   UNL     1     -31.003 -13.875  17.767  0.00  0.00    -0.198 NA
ATOM      9  H   UNL     1     -31.736 -14.879  15.475  0.00  0.00    +0.149 HD
ATOM     10  H   UNL     1     -31.361 -14.851  20.171  0.00  0.00    +0.144 HD
ATOM     11  H   UNL     1     -30.317 -13.690  21.036  0.00  0.00    +0.144 HD
ENDROOT
BRANCH   5  12
ATOM     12  N   UNL     1     -29.552 -11.306  20.040  0.00  0.00    +0.061 N 
ATOM     13  O   UNL     1     -29.730  -9.943  20.100  0.00  0.00    -0.126 OA
ATOM     14  O   UNL     1     -29.253 -11.919  21.086  0.00  0.00    -0.126 OA
ENDBRANCH   5  12
BRANCH   1  15
ATOM     15  C   UNL     1     -31.003 -13.422  14.023  0.00  0.00    +0.073 C 
BRANCH  15  17
ATOM     16  C   UNL     1     -28.899 -14.838  13.676  0.00  0.00    +0.006 C 
ATOM     17  C   UNL     1     -30.280 -14.471  13.134  0.00  0.00    +0.019 C 
ENDBRANCH  15  17
BRANCH  15  18
ATOM     18  C   UNL     1     -32.360 -12.983  13.425  0.00  0.00    +0.019 C 
ATOM     19  C   UNL     1     -32.521 -13.368  11.955  0.00  0.00    +0.006 C 
ENDBRANCH  15  18
ENDBRANCH   1  15
TORSDOF 4
ENDMDL
MODEL 6
REMARK VINA RESULT:    -3.555      4.804      6.549
REMARK INTER + INTRA:          -4.922
REMARK INTER:                  -4.584
REMARK INTRA:                  -0.339
REMARK UNBOUND:                -0.536
REMARK  Name = 
REMARK  6 active torsions:
REMARK  status: ('A' for Active; 'I' for Inactive)
REMARK    1  A    between atoms: C_1  and  C_2
REMARK    2  A    between atoms: C_2  and  C_3
REMARK    3  A    between atoms: C_3  and  C_4
REMARK    4  A    between atoms: C_3  and  N_6
REMARK    5  A    between atoms: C_4  and  C_5
REMARK    6  A    between atoms: C_10  and  N_14
REMARK                            x       y       z     vdW  Elec       q    Type
REMARK                         _______ _______ _______ _____ _____    ______ ____
ROOT
ATOM      1  N   UNL     1     -31.876 -12.035  14.199  0.00  0.00    -0.311 N 
ATOM      2  C   UNL     1     -31.613 -11.233  15.357  0.00  0.00    +0.217 A 
ATOM      3  N   UNL     1     -30.533 -11.482  16.143  0.00  0.00    -0.221 NA
ATOM      4  C   UNL     1     -30.275 -10.728  17.241  0.00  0.00    +0.150 A 
ATOM      5  C   UNL     1     -31.118  -9.661  17.581  0.00  0.00    +0.184 A 
ATOM      6  C   UNL     1     -32.250  -9.433  16.769  0.00  0.00    +0.152 A 
ATOM      7  N   UNL     1     -33.223  -8.434  17.089  0.00  0.00    -0.341 N 
ATOM      8  N   UNL     1     -32.459 -10.220  15.679  0.00  0.00    -0.198 NA
ATOM      9  H   UNL     1     -32.707 -11.792  13.613  0.00  0.00    +0.149 HD
ATOM     10  H   UNL     1     -34.005  -8.242  16.425  0.00  0.00    +0.144 HD
ATOM     11  H   UNL     1     -33.254  -7.967  18.020  0.00  0.00    +0.144 HD
ENDROOT
BRANCH   5  12
ATOM     12  N   UNL     1     -30.796  -8.830  18.707  0.00  0.00    +0.061 N 
ATOM     13  O   UNL     1     -31.738  -7.963  19.212  0.00  0.00    -0.126 OA
ATOM     14  O   UNL     1     -29.754  -9.035  19.365  0.00  0.00    -0.126 OA
ENDBRANCH   5  12
BRANCH   1  15
ATOM     15  C   UNL     1     -31.005 -13.148  13.798  0.00  0.00    +0.073 C 
BRANCH  15  17
ATOM     16  C   UNL     1     -29.671 -14.888  15.120  0.00  0.00    +0.006 C 
ATOM     17  C   UNL     1     -31.044 -14.259  14.884  0.00  0.00    +0.019 C 
ENDBRANCH  15  17
BRANCH  15  18
ATOM     18  C   UNL     1     -31.446 -13.670  12.411  0.00  0.00    +0.019 C 
ATOM     19  C   UNL     1     -32.845 -13.205  12.011  0.00  0.00    +0.006 C 
ENDBRANCH  15  18
ENDBRANCH   1  15
TORSDOF 4
ENDMDL
MODEL 7
REMARK VINA RESULT:    -3.553      1.857      2.297
REMARK INTER + INTRA:          -4.921
REMARK INTER:                  -4.359
REMARK INTRA:                  -0.562
REMARK UNBOUND:                -0.536
REMARK  Name = 
REMARK  6 active torsions:
REMARK  status: ('A' for Active; 'I' for Inactive)
REMARK    1  A    between atoms: C_1  and  C_2
REMARK    2  A    between atoms: C_2  and  C_3
REMARK    3  A    between atoms: C_3  and  C_4
REMARK    4  A    between atoms: C_3  and  N_6
REMARK    5  A    between atoms: C_4  and  C_5
REMARK    6  A    between atoms: C_10  and  N_14
REMARK                            x       y       z     vdW  Elec       q    Type
REMARK                         _______ _______ _______ _____ _____    ______ ____
ROOT
ATOM      1  N   UNL     1     -31.227 -11.074  18.083  0.00  0.00    -0.311 N 
ATOM      2  C   UNL     1     -29.918 -11.527  18.450  0.00  0.00    +0.217 A 
ATOM      3  N   UNL     1     -28.810 -10.867  18.022  0.00  0.00    -0.221 NA
ATOM      4  C   UNL     1     -27.567 -11.287  18.364  0.00  0.00    +0.150 A 
ATOM      5  C   UNL     1     -27.400 -12.412  19.182  0.00  0.00    +0.184 A 
ATOM      6  C   UNL     1     -28.560 -13.102  19.595  0.00  0.00    +0.152 A 
ATOM      7  N   UNL     1     -28.491 -14.317  20.348  0.00  0.00    -0.341 N 
ATOM      8  N   UNL     1     -29.782 -12.635  19.224  0.00  0.00    -0.198 NA
ATOM      9  H   UNL     1     -32.050 -11.602  18.454  0.00  0.00    +0.149 HD
ATOM     10  H   UNL     1     -29.369 -14.757  20.702  0.00  0.00    +0.144 HD
ATOM     11  H   UNL     1     -27.603 -14.853  20.458  0.00  0.00    +0.144 HD
ENDROOT
BRANCH   5  12
ATOM     12  N   UNL     1     -26.080 -12.806  19.590  0.00  0.00    +0.061 N 
ATOM     13  O   UNL     1     -25.834 -14.112  19.948  0.00  0.00    -0.126 OA
ATOM     14  O   UNL     1     -25.111 -12.036  19.422  0.00  0.00    -0.126 OA
ENDBRANCH   5  12
BRANCH   1  15
ATOM     15  C   UNL     1     -31.444  -9.887  17.245  0.00  0.00    +0.073 C 
BRANCH  15  17
ATOM     16  C   UNL     1     -32.439 -10.646  15.012  0.00  0.00    +0.006 C 
ATOM     17  C   UNL     1     -31.168 -10.241  15.758  0.00  0.00    +0.019 C 
ENDBRANCH  15  17
BRANCH  15  18
ATOM     18  C   UNL     1     -32.881  -9.360  17.464  0.00  0.00    +0.019 C 
ATOM     19  C   UNL     1     -33.319  -9.400  18.927  0.00  0.00    +0.006 C 
ENDBRANCH  15  18
ENDBRANCH   1  15
TORSDOF 4
ENDMDL
MODEL 8
REMARK VINA RESULT:    -3.430      1.960      2.418
REMARK INTER + INTRA:          -4.769
REMARK INTER:                  -4.108
REMARK INTRA:                  -0.661
REMARK UNBOUND:                -0.536
REMARK  Name = 
REMARK  6 active torsions:
REMARK  status: ('A' for Active; 'I' for Inactive)
REMARK    1  A    between atoms: C_1  and  C_2
REMARK    2  A    between atoms: C_2  and  C_3
REMARK    3  A    between atoms: C_3  and  C_4
REMARK    4  A    between atoms: C_3  and  N_6
REMARK    5  A    between atoms: C_4  and  C_5
REMARK    6  A    between atoms: C_10  and  N_14
REMARK                            x       y       z     vdW  Elec       q    Type
REMARK                         _______ _______ _______ _____ _____    ______ ____
ROOT
ATOM      1  N   UNL     1     -32.499 -11.284  19.771  0.00  0.00    -0.311 N 
ATOM      2  C   UNL     1     -31.102 -11.467  19.505  0.00  0.00    +0.217 A 
ATOM      3  N   UNL     1     -30.351 -10.448  19.011  0.00  0.00    -0.221 NA
ATOM      4  C   UNL     1     -29.029 -10.610  18.756  0.00  0.00    +0.150 A 
ATOM      5  C   UNL     1     -28.404 -11.838  19.011  0.00  0.00    +0.184 A 
ATOM      6  C   UNL     1     -29.205 -12.894  19.499  0.00  0.00    +0.152 A 
ATOM      7  N   UNL     1     -28.683 -14.212  19.696  0.00  0.00    -0.341 N 
ATOM      8  N   UNL     1     -30.526 -12.674  19.738  0.00  0.00    -0.198 NA
ATOM      9  H   UNL     1     -33.030 -12.091  20.170  0.00  0.00    +0.149 HD
ATOM     10  H   UNL     1     -29.284 -14.947  20.130  0.00  0.00    +0.144 HD
ATOM     11  H   UNL     1     -27.760 -14.507  19.312  0.00  0.00    +0.144 HD
ENDROOT
BRANCH   5  12
ATOM     12  N   UNL     1     -26.990 -11.976  18.800  0.00  0.00    +0.061 N 
ATOM     13  O   UNL     1     -26.299 -10.995  18.126  0.00  0.00    -0.126 OA
ATOM     14  O   UNL     1     -26.346 -12.861  19.401  0.00  0.00    -0.126 OA
ENDBRANCH   5  12
BRANCH   1  15
ATOM     15  C   UNL     1     -33.185 -10.006  19.537  0.00  0.00    +0.073 C 
BRANCH  15  17
ATOM     16  C   UNL     1     -33.507  -9.381  17.075  0.00  0.00    +0.006 C 
ATOM     17  C   UNL     1     -34.089 -10.122  18.279  0.00  0.00    +0.019 C 
ENDBRANCH  15  17
BRANCH  15  18
ATOM     18  C   UNL     1     -33.986  -9.616  20.800  0.00  0.00    +0.019 C 
ATOM     19  C   UNL     1     -33.997 -10.710  21.867  0.00  0.00    +0.006 C 
ENDBRANCH  15  18
ENDBRANCH   1  15
TORSDOF 4
ENDMDL
MODEL 9
REMARK VINA RESULT:    -3.359      5.408      6.916
REMARK INTER + INTRA:          -4.681
REMARK INTER:                  -4.033
REMARK INTRA:                  -0.648
REMARK UNBOUND:                -0.536
REMARK  Name = 
REMARK  6 active torsions:
REMARK  status: ('A' for Active; 'I' for Inactive)
REMARK    1  A    between atoms: C_1  and  C_2
REMARK    2  A    between atoms: C_2  and  C_3
REMARK    3  A    between atoms: C_3  and  C_4
REMARK    4  A    between atoms: C_3  and  N_6
REMARK    5  A    between atoms: C_4  and  C_5
REMARK    6  A    between atoms: C_10  and  N_14
REMARK                            x       y       z     vdW  Elec       q    Type
REMARK                         _______ _______ _______ _____ _____    ______ ____
ROOT
ATOM      1  N   UNL     1     -31.733 -11.885  13.917  0.00  0.00    -0.311 N 
ATOM      2  C   UNL     1     -32.122 -11.576  15.261  0.00  0.00    +0.217 A 
ATOM      3  N   UNL     1     -32.614 -12.541  16.080  0.00  0.00    -0.221 NA
ATOM      4  C   UNL     1     -32.985 -12.259  17.354  0.00  0.00    +0.150 A 
ATOM      5  C   UNL     1     -32.856 -10.958  17.857  0.00  0.00    +0.184 A 
ATOM      6  C   UNL     1     -32.369  -9.961  16.984  0.00  0.00    +0.152 A 
ATOM      7  N   UNL     1     -32.294  -8.585  17.371  0.00  0.00    -0.341 N 
ATOM      8  N   UNL     1     -32.010 -10.301  15.717  0.00  0.00    -0.198 NA
ATOM      9  H   UNL     1     -31.341 -11.113  13.331  0.00  0.00    +0.149 HD
ATOM     10  H   UNL     1     -31.857  -7.890  16.727  0.00  0.00    +0.144 HD
ATOM     11  H   UNL     1     -32.769  -8.222  18.225  0.00  0.00    +0.144 HD
ENDROOT
BRANCH   5  12
ATOM     12  N   UNL     1     -33.190 -10.688  19.228  0.00  0.00    +0.061 N 
ATOM     13  O   UNL     1     -33.790  -9.496  19.566  0.00  0.00    -0.126 OA
ATOM     14  O   UNL     1     -33.140 -11.599  20.081  0.00  0.00    -0.126 OA
ENDBRANCH   5  12
BRANCH   1  15
ATOM     15  C   UNL     1     -31.834 -13.240  13.360  0.00  0.00    +0.073 C 
BRANCH  15  17
ATOM     16  C   UNL     1     -33.835 -12.514  11.939  0.00  0.00    +0.006 C 
ATOM     17  C   UNL     1     -32.457 -13.176  11.939  0.00  0.00    +0.019 C 
ENDBRANCH  15  17
BRANCH  15  18
ATOM     18  C   UNL     1     -30.434 -13.898  13.356  0.00  0.00    +0.019 C 
ATOM     19  C   UNL     1     -30.171 -14.759  14.590  0.00  0.00    +0.006 C 
ENDBRANCH  15  18
ENDBRANCH   1  15
TORSDOF 4
ENDMDL
