MODEL 1
REMARK VINA RESULT:    -5.264      0.000      0.000
REMARK INTER + INTRA:          -7.061
REMARK INTER:                  -6.649
REMARK INTRA:                  -0.412
REMARK UNBOUND:                -0.412
REMARK  Name = 
REMARK  5 active torsions:
REMARK  status: ('A' for Active; 'I' for Inactive)
REMARK    1  A    between atoms: C_2  and  C_4
REMARK    2  A    between atoms: C_4  and  O_5
REMARK    3  A    between atoms: C_4  and  C_6
REMARK    4  A    between atoms: N_9  and  C_10
REMARK    5  A    between atoms: C_10  and  C_11
REMARK                            x       y       z     vdW  Elec       q    Type
REMARK                         _______ _______ _______ _____ _____    ______ ____
ROOT
ATOM      1  C   UNL     1     -28.633 -13.507  20.183  0.00  0.00    +0.029 C 
ATOM      2  C   UNL     1     -30.116 -13.183  20.428  0.00  0.00    +0.022 C 
ATOM      3  C   UNL     1     -30.848 -12.920  19.095  0.00  0.00    +0.085 C 
ATOM      4  N   UNL     1     -30.045 -12.160  18.099  0.00  0.00    -0.298 NA
ATOM      5  C   UNL     1     -28.912 -11.423  18.695  0.00  0.00    +0.085 C 
ATOM      6  C   UNL     1     -27.924 -12.354  19.426  0.00  0.00    +0.022 C 
ENDROOT
BRANCH   1   7
ATOM      7  C   UNL     1     -27.898 -13.931  21.480  0.00  0.00    +0.203 C 
BRANCH   7   9
ATOM      8  N   UNL     1     -26.056 -15.062  20.124  0.00  0.00    -0.327 N 
ATOM      9  C   UNL     1     -26.443 -14.275  21.251  0.00  0.00    +0.239 C 
ATOM     10  O   UNL     1     -25.561 -13.875  22.059  0.00  0.00    -0.273 OA
ATOM     11  H   UNL     1     -26.767 -15.404  19.441  0.00  0.00    +0.145 HD
ATOM     12  H   UNL     1     -25.052 -15.307  19.973  0.00  0.00    +0.145 HD
ENDBRANCH   7   9
BRANCH   7  13
ATOM     13  O   UNL     1     -28.566 -15.021  22.062  0.00  0.00    -0.382 OA
ATOM     14  H   UNL     1     -29.407 -14.669  22.456  0.00  0.00    +0.210 HD
ENDBRANCH   7  13
ENDBRANCH   1   7
BRANCH   4  15
ATOM     15  C   UNL     1     -29.627 -12.983  16.943  0.00  0.00    +0.119 C 
BRANCH  15  16
ATOM     16  C   UNL     1     -30.535 -12.728  15.767  0.00  0.00    -0.030 A 
ATOM     17  C   UNL     1     -30.675 -13.684  14.749  0.00  0.00    +0.008 A 
ATOM     18  C   UNL     1     -31.530 -13.443  13.669  0.00  0.00    +0.041 A 
ATOM     19  C   UNL     1     -32.250 -12.247  13.598  0.00  0.00    +0.158 A 
ATOM     20  F   UNL     1     -33.078 -12.018  12.549  0.00  0.00    -0.202 F 
ATOM     21  C   UNL     1     -32.116 -11.291  14.610  0.00  0.00    +0.159 A 
ATOM     22  F   UNL     1     -32.816 -10.131  14.544  0.00  0.00    -0.202 F 
ATOM     23  C   UNL     1     -31.263 -11.529  15.691  0.00  0.00    +0.046 A 
ENDBRANCH  15  16
ENDBRANCH   4  15
TORSDOF 5
ENDMDL
MODEL 2
REMARK VINA RESULT:    -4.556      1.838      2.468
REMARK INTER + INTRA:          -6.167
REMARK INTER:                  -5.568
REMARK INTRA:                  -0.599
REMARK UNBOUND:                -0.412
REMARK  Name = 
REMARK  5 active torsions:
REMARK  status: ('A' for Active; 'I' for Inactive)
REMARK    1  A    between atoms: C_2  and  C_4
REMARK    2  A    between atoms: C_4  and  O_5
REMARK    3  A    between atoms: C_4  and  C_6
REMARK    4  A    between atoms: N_9  and  C_10
REMARK    5  A    between atoms: C_10  and  C_11
REMARK                            x       y       z     vdW  Elec       q    Type
REMARK                         _______ _______ _______ _____ _____    ______ ____
ROOT
ATOM      1  C   UNL     1     -29.522 -11.941  19.150  0.00  0.00    +0.029 C 
ATOM      2  C   UNL     1     -30.859 -12.685  19.296  0.00  0.00    +0.022 C 
ATOM      3  C   UNL     1     -31.725 -12.514  18.031  0.00  0.00    +0.085 C 
ATOM      4  N   UNL     1     -31.658 -11.155  17.426  0.00  0.00    -0.298 NA
ATOM      5  C   UNL     1     -31.163 -10.121  18.358  0.00  0.00    +0.085 C 
ATOM      6  C   UNL     1     -29.747 -10.430  18.881  0.00  0.00    +0.022 C 
ENDROOT
BRANCH   1   7
ATOM      7  C   UNL     1     -28.559 -12.216  20.333  0.00  0.00    +0.203 C 
BRANCH   7   9
ATOM      8  N   UNL     1     -27.908 -14.675  20.539  0.00  0.00    -0.327 N 
ATOM      9  C   UNL     1     -27.606 -13.361  20.068  0.00  0.00    +0.239 C 
ATOM     10  O   UNL     1     -26.534 -13.161  19.436  0.00  0.00    -0.273 OA
ATOM     11  H   UNL     1     -28.790 -14.865  21.064  0.00  0.00    +0.145 HD
ATOM     12  H   UNL     1     -27.245 -15.462  20.363  0.00  0.00    +0.145 HD
ENDBRANCH   7   9
BRANCH   7  13
ATOM     13  O   UNL     1     -29.305 -12.468  21.496  0.00  0.00    -0.382 OA
ATOM     14  H   UNL     1     -30.224 -12.131  21.329  0.00  0.00    +0.210 HD
ENDBRANCH   7  13
ENDBRANCH   1   7
BRANCH   4  15
ATOM     15  C   UNL     1     -30.940 -11.131  16.134  0.00  0.00    +0.119 C 
BRANCH  15  16
ATOM     16  C   UNL     1     -31.843 -11.609  15.027  0.00  0.00    -0.030 A 
ATOM     17  C   UNL     1     -33.098 -11.013  14.819  0.00  0.00    +0.008 A 
ATOM     18  C   UNL     1     -33.924 -11.455  13.781  0.00  0.00    +0.041 A 
ATOM     19  C   UNL     1     -33.504 -12.492  12.943  0.00  0.00    +0.158 A 
ATOM     20  F   UNL     1     -34.308 -12.917  11.938  0.00  0.00    -0.202 F 
ATOM     21  C   UNL     1     -32.255 -13.089  13.144  0.00  0.00    +0.159 A 
ATOM     22  F   UNL     1     -31.845 -14.094  12.331  0.00  0.00    -0.202 F 
ATOM     23  C   UNL     1     -31.427 -12.649  14.181  0.00  0.00    +0.046 A 
ENDBRANCH  15  16
ENDBRANCH   4  15
TORSDOF 5
ENDMDL
MODEL 3
REMARK VINA RESULT:    -4.465      4.030      5.419
REMARK INTER + INTRA:          -6.051
REMARK INTER:                  -5.417
REMARK INTRA:                  -0.634
REMARK UNBOUND:                -0.412
REMARK  Name = 
REMARK  5 active torsions:
REMARK  status: ('A' for Active; 'I' for Inactive)
REMARK    1  A    between atoms: C_2  and  C_4
REMARK    2  A    between atoms: C_4  and  O_5
REMARK    3  A    between atoms: C_4  and  C_6
REMARK    4  A    between atoms: N_9  and  C_10
REMARK    5  A    between atoms: C_10  and  C_11
REMARK                            x       y       z     vdW  Elec       q    Type
REMARK                         _______ _______ _______ _____ _____    ______ ____
ROOT
ATOM      1  C   UNL     1     -31.101  -8.994  18.938  0.00  0.00    +0.029 C 
ATOM      2  C   UNL     1     -29.900  -9.955  18.911  0.00  0.00    +0.022 C 
ATOM      3  C   UNL     1     -29.786 -10.652  17.539  0.00  0.00    +0.085 C 
ATOM      4  N   UNL     1     -31.094 -11.033  16.938  0.00  0.00    -0.298 NA
ATOM      5  C   UNL     1     -32.197 -11.090  17.918  0.00  0.00    +0.085 C 
ATOM      6  C   UNL     1     -32.425  -9.742  18.628  0.00  0.00    +0.022 C 
ENDROOT
BRANCH   1   7
ATOM      7  C   UNL     1     -31.160  -8.157  20.241  0.00  0.00    +0.203 C 
BRANCH   7   9
ATOM      8  N   UNL     1     -32.257  -6.165  19.085  0.00  0.00    -0.327 N 
ATOM      9  C   UNL     1     -32.202  -7.061  20.195  0.00  0.00    +0.239 C 
ATOM     10  O   UNL     1     -33.024  -6.928  21.141  0.00  0.00    -0.273 OA
ATOM     11  H   UNL     1     -31.588  -6.256  18.290  0.00  0.00    +0.145 HD
ATOM     12  H   UNL     1     -32.971  -5.403  19.059  0.00  0.00    +0.145 HD
ENDBRANCH   7   9
BRANCH   7  13
ATOM     13  O   UNL     1     -29.894  -7.609  20.504  0.00  0.00    -0.382 OA
ATOM     14  H   UNL     1     -30.017  -6.629  20.604  0.00  0.00    +0.210 HD
ENDBRANCH   7  13
ENDBRANCH   1   7
BRANCH   4  15
ATOM     15  C   UNL     1     -31.443 -10.219  15.752  0.00  0.00    +0.119 C 
BRANCH  15  16
ATOM     16  C   UNL     1     -32.203 -11.054  14.755  0.00  0.00    -0.030 A 
ATOM     17  C   UNL     1     -33.517 -10.716  14.391  0.00  0.00    +0.008 A 
ATOM     18  C   UNL     1     -34.209 -11.490  13.454  0.00  0.00    +0.041 A 
ATOM     19  C   UNL     1     -33.596 -12.604  12.874  0.00  0.00    +0.158 A 
ATOM     20  F   UNL     1     -34.271 -13.351  11.965  0.00  0.00    -0.202 F 
ATOM     21  C   UNL     1     -32.287 -12.945  13.230  0.00  0.00    +0.159 A 
ATOM     22  F   UNL     1     -31.689 -14.025  12.667  0.00  0.00    -0.202 F 
ATOM     23  C   UNL     1     -31.592 -12.173  14.167  0.00  0.00    +0.046 A 
ENDBRANCH  15  16
ENDBRANCH   4  15
TORSDOF 5
ENDMDL
MODEL 4
REMARK VINA RESULT:    -4.368      3.426      4.843
REMARK INTER + INTRA:          -5.928
REMARK INTER:                  -5.467
REMARK INTRA:                  -0.461
REMARK UNBOUND:                -0.412
REMARK  Name = 
REMARK  5 active torsions:
REMARK  status: ('A' for Active; 'I' for Inactive)
REMARK    1  A    between atoms: C_2  and  C_4
REMARK    2  A    between atoms: C_4  and  O_5
REMARK    3  A    between atoms: C_4  and  C_6
REMARK    4  A    between atoms: N_9  and  C_10
REMARK    5  A    between atoms: C_10  and  C_11
REMARK                            x       y       z     vdW  Elec       q    Type
REMARK                         _______ _______ _______ _____ _____    ______ ____
ROOT
ATOM      1  C   UNL     1     -30.837 -10.382  19.158  0.00  0.00    +0.029 C 
ATOM      2  C   UNL     1     -29.402 -10.524  18.625  0.00  0.00    +0.022 C 
ATOM      3  C   UNL     1     -29.266 -11.782  17.741  0.00  0.00    +0.085 C 
ATOM      4  N   UNL     1     -30.027 -12.961  18.239  0.00  0.00    -0.298 NA
ATOM      5  C   UNL     1     -30.389 -12.867  19.667  0.00  0.00    +0.085 C 
ATOM      6  C   UNL     1     -31.260 -11.632  19.974  0.00  0.00    +0.022 C 
ENDROOT
BRANCH   1   7
ATOM      7  C   UNL     1     -31.056  -9.050  19.921  0.00  0.00    +0.203 C 
BRANCH   7   9
ATOM      8  N   UNL     1     -32.329  -8.319  17.833  0.00  0.00    -0.327 N 
ATOM      9  C   UNL     1     -31.997  -8.106  19.206  0.00  0.00    +0.239 C 
ATOM     10  O   UNL     1     -32.490  -7.119  19.816  0.00  0.00    -0.273 OA
ATOM     11  H   UNL     1     -31.934  -9.130  17.308  0.00  0.00    +0.145 HD
ATOM     12  H   UNL     1     -32.971  -7.660  17.339  0.00  0.00    +0.145 HD
ENDBRANCH   7   9
BRANCH   7  13
ATOM     13  O   UNL     1     -29.817  -8.426  20.138  0.00  0.00    -0.382 OA
ATOM     14  H   UNL     1     -29.261  -9.059  20.663  0.00  0.00    +0.210 HD
ENDBRANCH   7  13
ENDBRANCH   1   7
BRANCH   4  15
ATOM     15  C   UNL     1     -31.190 -13.300  17.390  0.00  0.00    +0.119 C 
BRANCH  15  16
ATOM     16  C   UNL     1     -30.728 -13.716  16.017  0.00  0.00    -0.030 A 
ATOM     17  C   UNL     1     -29.710 -14.671  15.862  0.00  0.00    +0.008 A 
ATOM     18  C   UNL     1     -29.298 -15.060  14.584  0.00  0.00    +0.041 A 
ATOM     19  C   UNL     1     -29.899 -14.500  13.453  0.00  0.00    +0.158 A 
ATOM     20  F   UNL     1     -29.496 -14.881  12.215  0.00  0.00    -0.202 F 
ATOM     21  C   UNL     1     -30.915 -13.550  13.599  0.00  0.00    +0.159 A 
ATOM     22  F   UNL     1     -31.500 -13.008  12.503  0.00  0.00    -0.202 F 
ATOM     23  C   UNL     1     -31.329 -13.159  14.877  0.00  0.00    +0.046 A 
ENDBRANCH  15  16
ENDBRANCH   4  15
TORSDOF 5
ENDMDL
MODEL 5
REMARK VINA RESULT:    -4.252      1.870      2.405
REMARK INTER + INTRA:          -5.783
REMARK INTER:                  -5.179
REMARK INTRA:                  -0.604
REMARK UNBOUND:                -0.412
REMARK  Name = 
REMARK  5 active torsions:
REMARK  status: ('A' for Active; 'I' for Inactive)
REMARK    1  A    between atoms: C_2  and  C_4
REMARK    2  A    between atoms: C_4  and  O_5
REMARK    3  A    between atoms: C_4  and  C_6
REMARK    4  A    between atoms: N_9  and  C_10
REMARK    5  A    between atoms: C_10  and  C_11
REMARK                            x       y       z     vdW  Elec       q    Type
REMARK                         _______ _______ _______ _____ _____    ______ ____
ROOT
ATOM      1  C   UNL     1     -28.769 -12.844  20.868  0.00  0.00    +0.029 C 
ATOM      2  C   UNL     1     -30.121 -13.531  20.616  0.00  0.00    +0.022 C 
ATOM      3  C   UNL     1     -30.974 -12.718  19.620  0.00  0.00    +0.085 C 
ATOM      4  N   UNL     1     -30.878 -11.243  19.798  0.00  0.00    -0.298 NA
ATOM      5  C   UNL     1     -30.370 -10.843  21.125  0.00  0.00    +0.085 C 
ATOM      6  C   UNL     1     -28.964 -11.404  21.412  0.00  0.00    +0.022 C 
ENDROOT
BRANCH   1   7
ATOM      7  C   UNL     1     -27.820 -13.705  21.739  0.00  0.00    +0.203 C 
BRANCH   7   9
ATOM      8  N   UNL     1     -25.671 -15.062  21.510  0.00  0.00    -0.327 N 
ATOM      9  C   UNL     1     -26.486 -13.971  21.077  0.00  0.00    +0.239 C 
ATOM     10  O   UNL     1     -26.080 -13.228  20.144  0.00  0.00    -0.273 OA
ATOM     11  H   UNL     1     -25.986 -15.692  22.279  0.00  0.00    +0.145 HD
ATOM     12  H   UNL     1     -24.747 -15.239  21.058  0.00  0.00    +0.145 HD
ENDBRANCH   7   9
BRANCH   7  13
ATOM     13  O   UNL     1     -28.450 -14.918  22.061  0.00  0.00    -0.382 OA
ATOM     14  H   UNL     1     -28.464 -14.984  23.051  0.00  0.00    +0.210 HD
ENDBRANCH   7  13
ENDBRANCH   1   7
BRANCH   4  15
ATOM     15  C   UNL     1     -30.149 -10.574  18.697  0.00  0.00    +0.119 C 
BRANCH  15  16
ATOM     16  C   UNL     1     -31.084 -10.293  17.550  0.00  0.00    -0.030 A 
ATOM     17  C   UNL     1     -30.794 -10.762  16.258  0.00  0.00    +0.008 A 
ATOM     18  C   UNL     1     -31.675 -10.507  15.202  0.00  0.00    +0.041 A 
ATOM     19  C   UNL     1     -32.850  -9.784  15.428  0.00  0.00    +0.158 A 
ATOM     20  F   UNL     1     -33.701  -9.540  14.401  0.00  0.00    -0.202 F 
ATOM     21  C   UNL     1     -33.145  -9.315  16.712  0.00  0.00    +0.159 A 
ATOM     22  F   UNL     1     -34.285  -8.615  16.933  0.00  0.00    -0.202 F 
ATOM     23  C   UNL     1     -32.267  -9.569  17.770  0.00  0.00    +0.046 A 
ENDBRANCH  15  16
ENDBRANCH   4  15
TORSDOF 5
ENDMDL
MODEL 6
REMARK VINA RESULT:    -4.141      5.086      6.885
REMARK INTER + INTRA:          -5.642
REMARK INTER:                  -5.161
REMARK INTRA:                  -0.481
REMARK UNBOUND:                -0.412
REMARK  Name = 
REMARK  5 active torsions:
REMARK  status: ('A' for Active; 'I' for Inactive)
REMARK    1  A    between atoms: C_2  and  C_4
REMARK    2  A    between atoms: C_4  and  O_5
REMARK    3  A    between atoms: C_4  and  C_6
REMARK    4  A    between atoms: N_9  and  C_10
REMARK    5  A    between atoms: C_10  and  C_11
REMARK                            x       y       z     vdW  Elec       q    Type
REMARK                         _______ _______ _______ _____ _____    ______ ____
ROOT
ATOM      1  C   UNL     1     -33.354  -9.841  16.617  0.00  0.00    +0.029 C 
ATOM      2  C   UNL     1     -31.861  -9.525  16.426  0.00  0.00    +0.022 C 
ATOM      3  C   UNL     1     -31.066 -10.806  16.099  0.00  0.00    +0.085 C 
ATOM      4  N   UNL     1     -31.511 -12.009  16.856  0.00  0.00    -0.298 NA
ATOM      5  C   UNL     1     -32.292 -11.687  18.067  0.00  0.00    +0.085 C 
ATOM      6  C   UNL     1     -33.567 -10.882  17.748  0.00  0.00    +0.022 C 
ENDROOT
BRANCH   1   7
ATOM      7  C   UNL     1     -34.212  -8.563  16.791  0.00  0.00    +0.203 C 
BRANCH   7   9
ATOM      8  N   UNL     1     -34.594  -6.486  15.359  0.00  0.00    -0.327 N 
ATOM      9  C   UNL     1     -34.576  -7.909  15.477  0.00  0.00    +0.239 C 
ATOM     10  O   UNL     1     -34.874  -8.616  14.477  0.00  0.00    -0.273 OA
ATOM     11  H   UNL     1     -34.351  -5.879  16.173  0.00  0.00    +0.145 HD
ATOM     12  H   UNL     1     -34.855  -6.036  14.454  0.00  0.00    +0.145 HD
ENDBRANCH   7   9
BRANCH   7  13
ATOM     13  O   UNL     1     -33.531  -7.649  17.613  0.00  0.00    -0.382 OA
ATOM     14  H   UNL     1     -32.718  -7.365  17.118  0.00  0.00    +0.210 HD
ENDBRANCH   7  13
ENDBRANCH   1   7
BRANCH   4  15
ATOM     15  C   UNL     1     -32.191 -13.009  16.003  0.00  0.00    +0.119 C 
BRANCH  15  16
ATOM     16  C   UNL     1     -31.248 -13.517  14.944  0.00  0.00    -0.030 A 
ATOM     17  C   UNL     1     -31.586 -13.431  13.583  0.00  0.00    +0.008 A 
ATOM     18  C   UNL     1     -30.698 -13.893  12.606  0.00  0.00    +0.041 A 
ATOM     19  C   UNL     1     -29.468 -14.442  12.980  0.00  0.00    +0.158 A 
ATOM     20  F   UNL     1     -28.610 -14.889  12.030  0.00  0.00    -0.202 F 
ATOM     21  C   UNL     1     -29.124 -14.530  14.333  0.00  0.00    +0.159 A 
ATOM     22  F   UNL     1     -27.931 -15.061  14.698  0.00  0.00    -0.202 F 
ATOM     23  C   UNL     1     -30.010 -14.068  15.312  0.00  0.00    +0.046 A 
ENDBRANCH  15  16
ENDBRANCH   4  15
TORSDOF 5
ENDMDL
MODEL 7
REMARK VINA RESULT:    -4.062      4.877      7.656
REMARK INTER + INTRA:          -5.542
REMARK INTER:                  -5.022
REMARK INTRA:                  -0.520
REMARK UNBOUND:                -0.412
REMARK  Name = 
REMARK  5 active torsions:
REMARK  status: ('A' for Active; 'I' for Inactive)
REMARK    1  A    between atoms: C_2  and  C_4
REMARK    2  A    between atoms: C_4  and  O_5
REMARK    3  A    between atoms: C_4  and  C_6
REMARK    4  A    between atoms: N_9  and  C_10
REMARK    5  A    between atoms: C_10  and  C_11
REMARK                            x       y       z     vdW  Elec       q    Type
REMARK                         _______ _______ _______ _____ _____    ______ ____
ROOT
ATOM      1  C   UNL     1     -31.905 -10.908  16.944  0.00  0.00    +0.029 C 
ATOM      2  C   UNL     1     -31.090 -11.889  16.085  0.00  0.00    +0.022 C 
ATOM      3  C   UNL     1     -30.017 -12.602  16.933  0.00  0.00    +0.085 C 
ATOM      4  N   UNL     1     -29.357 -11.727  17.942  0.00  0.00    -0.298 NA
ATOM      5  C   UNL     1     -29.509 -10.286  17.659  0.00  0.00    +0.085 C 
ATOM      6  C   UNL     1     -30.986  -9.848  17.608  0.00  0.00    +0.022 C 
ENDROOT
BRANCH   1   7
ATOM      7  C   UNL     1     -33.094 -10.287  16.168  0.00  0.00    +0.203 C 
BRANCH   7   9
ATOM      8  N   UNL     1     -34.362 -11.786  14.538  0.00  0.00    -0.327 N 
ATOM      9  C   UNL     1     -34.189 -11.286  15.865  0.00  0.00    +0.239 C 
ATOM     10  O   UNL     1     -34.963 -11.677  16.780  0.00  0.00    -0.273 OA
ATOM     11  H   UNL     1     -33.733 -11.478  13.765  0.00  0.00    +0.145 HD
ATOM     12  H   UNL     1     -35.124 -12.469  14.329  0.00  0.00    +0.145 HD
ENDBRANCH   7   9
BRANCH   7  13
ATOM     13  O   UNL     1     -32.625  -9.708  14.978  0.00  0.00    -0.382 OA
ATOM     14  H   UNL     1     -32.160 -10.424  14.470  0.00  0.00    +0.210 HD
ENDBRANCH   7  13
ENDBRANCH   1   7
BRANCH   4  15
ATOM     15  C   UNL     1     -29.732 -12.065  19.333  0.00  0.00    +0.119 C 
BRANCH  15  16
ATOM     16  C   UNL     1     -28.587 -12.757  20.027  0.00  0.00    -0.030 A 
ATOM     17  C   UNL     1     -28.822 -13.619  21.110  0.00  0.00    +0.008 A 
ATOM     18  C   UNL     1     -27.754 -14.266  21.739  0.00  0.00    +0.041 A 
ATOM     19  C   UNL     1     -26.446 -14.059  21.290  0.00  0.00    +0.158 A 
ATOM     20  F   UNL     1     -25.414 -14.690  21.903  0.00  0.00    -0.202 F 
ATOM     21  C   UNL     1     -26.205 -13.203  20.211  0.00  0.00    +0.159 A 
ATOM     22  F   UNL     1     -24.938 -13.002  19.773  0.00  0.00    -0.202 F 
ATOM     23  C   UNL     1     -27.272 -12.554  19.580  0.00  0.00    +0.046 A 
ENDBRANCH  15  16
ENDBRANCH   4  15
TORSDOF 5
ENDMDL
MODEL 8
REMARK VINA RESULT:    -4.010      3.784      5.345
REMARK INTER + INTRA:          -5.477
REMARK INTER:                  -4.990
REMARK INTRA:                  -0.486
REMARK UNBOUND:                -0.412
REMARK  Name = 
REMARK  5 active torsions:
REMARK  status: ('A' for Active; 'I' for Inactive)
REMARK    1  A    between atoms: C_2  and  C_4
REMARK    2  A    between atoms: C_4  and  O_5
REMARK    3  A    between atoms: C_4  and  C_6
REMARK    4  A    between atoms: N_9  and  C_10
REMARK    5  A    between atoms: C_10  and  C_11
REMARK                            x       y       z     vdW  Elec       q    Type
REMARK                         _______ _______ _______ _____ _____    ______ ____
ROOT
ATOM      1  C   UNL     1     -32.837 -10.739  18.418  0.00  0.00    +0.029 C 
ATOM      2  C   UNL     1     -31.475 -10.194  17.956  0.00  0.00    +0.022 C 
ATOM      3  C   UNL     1     -30.669 -11.283  17.218  0.00  0.00    +0.085 C 
ATOM      4  N   UNL     1     -30.796 -12.643  17.812  0.00  0.00    -0.298 NA
ATOM      5  C   UNL     1     -31.278 -12.632  19.208  0.00  0.00    +0.085 C 
ATOM      6  C   UNL     1     -32.662 -11.970  19.348  0.00  0.00    +0.022 C 
ENDROOT
BRANCH   1   7
ATOM      7  C   UNL     1     -33.742  -9.637  19.024  0.00  0.00    +0.203 C 
BRANCH   7   9
ATOM      8  N   UNL     1     -34.864  -9.937  21.296  0.00  0.00    -0.327 N 
ATOM      9  C   UNL     1     -33.702  -9.602  20.536  0.00  0.00    +0.239 C 
ATOM     10  O   UNL     1     -32.644  -9.269  21.135  0.00  0.00    -0.273 OA
ATOM     11  H   UNL     1     -35.750 -10.217  20.822  0.00  0.00    +0.145 HD
ATOM     12  H   UNL     1     -34.837  -9.903  22.339  0.00  0.00    +0.145 HD
ENDBRANCH   7   9
BRANCH   7  13
ATOM     13  O   UNL     1     -35.062  -9.818  18.579  0.00  0.00    -0.382 OA
ATOM     14  H   UNL     1     -35.266 -10.786  18.663  0.00  0.00    +0.210 HD
ENDBRANCH   7  13
ENDBRANCH   1   7
BRANCH   4  15
ATOM     15  C   UNL     1     -31.569 -13.575  16.962  0.00  0.00    +0.119 C 
BRANCH  15  16
ATOM     16  C   UNL     1     -30.797 -13.898  15.709  0.00  0.00    -0.030 A 
ATOM     17  C   UNL     1     -29.542 -14.525  15.781  0.00  0.00    +0.008 A 
ATOM     18  C   UNL     1     -28.840 -14.832  14.612  0.00  0.00    +0.041 A 
ATOM     19  C   UNL     1     -29.385 -14.517  13.364  0.00  0.00    +0.158 A 
ATOM     20  F   UNL     1     -28.701 -14.818  12.232  0.00  0.00    -0.202 F 
ATOM     21  C   UNL     1     -30.635 -13.894  13.284  0.00  0.00    +0.159 A 
ATOM     22  F   UNL     1     -31.166 -13.589  12.074  0.00  0.00    -0.202 F 
ATOM     23  C   UNL     1     -31.340 -13.586  14.452  0.00  0.00    +0.046 A 
ENDBRANCH  15  16
ENDBRANCH   4  15
TORSDOF 5
ENDMDL
MODEL 9
REMARK VINA RESULT:    -3.961      4.181      5.245
REMARK INTER + INTRA:          -5.415
REMARK INTER:                  -4.967
REMARK INTRA:                  -0.448
REMARK UNBOUND:                -0.412
REMARK  Name = 
REMARK  5 active torsions:
REMARK  status: ('A' for Active; 'I' for Inactive)
REMARK    1  A    between atoms: C_2  and  C_4
REMARK    2  A    between atoms: C_4  and  O_5
REMARK    3  A    between atoms: C_4  and  C_6
REMARK    4  A    between atoms: N_9  and  C_10
REMARK    5  A    between atoms: C_10  and  C_11
REMARK                            x       y       z     vdW  Elec       q    Type
REMARK                         _______ _______ _______ _____ _____    ______ ____
ROOT
ATOM      1  C   UNL     1     -31.444  -9.592  18.940  0.00  0.00    +0.029 C 
ATOM      2  C   UNL     1     -32.660  -9.141  18.113  0.00  0.00    +0.022 C 
ATOM      3  C   UNL     1     -32.984 -10.166  17.007  0.00  0.00    +0.085 C 
ATOM      4  N   UNL     1     -31.783 -10.759  16.355  0.00  0.00    -0.298 NA
ATOM      5  C   UNL     1     -30.555  -9.962  16.550  0.00  0.00    +0.085 C 
ATOM      6  C   UNL     1     -30.196  -9.789  18.039  0.00  0.00    +0.022 C 
ENDROOT
BRANCH   1   7
ATOM      7  C   UNL     1     -31.181  -8.672  20.158  0.00  0.00    +0.203 C 
BRANCH   7   9
ATOM      8  N   UNL     1     -31.761  -6.329  19.332  0.00  0.00    -0.327 N 
ATOM      9  C   UNL     1     -32.062  -7.442  20.174  0.00  0.00    +0.239 C 
ATOM     10  O   UNL     1     -33.064  -7.389  20.936  0.00  0.00    -0.273 OA
ATOM     11  H   UNL     1     -30.937  -6.350  18.691  0.00  0.00    +0.145 HD
ATOM     12  H   UNL     1     -32.365  -5.477  19.350  0.00  0.00    +0.145 HD
ENDBRANCH   7   9
BRANCH   7  13
ATOM     13  O   UNL     1     -29.828  -8.297  20.178  0.00  0.00    -0.382 OA
ATOM     14  H   UNL     1     -29.737  -7.507  19.583  0.00  0.00    +0.210 HD
ENDBRANCH   7  13
ENDBRANCH   1   7
BRANCH   4  15
ATOM     15  C   UNL     1     -31.584 -12.184  16.697  0.00  0.00    +0.119 C 
BRANCH  15  16
ATOM     16  C   UNL     1     -31.089 -12.943  15.494  0.00  0.00    -0.030 A 
ATOM     17  C   UNL     1     -30.000 -13.824  15.600  0.00  0.00    +0.008 A 
ATOM     18  C   UNL     1     -29.556 -14.534  14.480  0.00  0.00    +0.041 A 
ATOM     19  C   UNL     1     -30.196 -14.371  13.248  0.00  0.00    +0.158 A 
ATOM     20  F   UNL     1     -29.762 -15.062  12.165  0.00  0.00    -0.202 F 
ATOM     21  C   UNL     1     -31.282 -13.497  13.135  0.00  0.00    +0.159 A 
ATOM     22  F   UNL     1     -31.905 -13.339  11.941  0.00  0.00    -0.202 F 
ATOM     23  C   UNL     1     -31.728 -12.786  14.253  0.00  0.00    +0.046 A 
ENDBRANCH  15  16
ENDBRANCH   4  15
TORSDOF 5
ENDMDL
