MODEL 1
REMARK VINA RESULT:    -4.954      0.000      0.000
REMARK INTER + INTRA:          -6.442
REMARK INTER:                  -6.112
REMARK INTRA:                  -0.329
REMARK UNBOUND:                -0.329
REMARK  Name = 
REMARK  4 active torsions:
REMARK  status: ('A' for Active; 'I' for Inactive)
REMARK    1  A    between atoms: C_2  and  C_3
REMARK    2  A    between atoms: N_13  and  C_14
REMARK    3  A    between atoms: C_14  and  C_15
REMARK    4  A    between atoms: C_19  and  N_21
REMARK                            x       y       z     vdW  Elec       q    Type
REMARK                         _______ _______ _______ _____ _____    ______ ____
ROOT
ATOM      1  C   UNL     1     -27.287 -13.121  20.174  0.00  0.00    +0.052 A 
ATOM      2  C   UNL     1     -28.447 -13.639  20.766  0.00  0.00    +0.021 A 
ATOM      3  C   UNL     1     -29.707 -13.213  20.337  0.00  0.00    +0.029 A 
ATOM      4  C   UNL     1     -29.816 -12.266  19.314  0.00  0.00    +0.073 A 
ATOM      5  N   UNL     1     -31.041 -11.848  18.896  0.00  0.00    -0.232 NA
ATOM      6  C   UNL     1     -31.197 -10.927  17.905  0.00  0.00    +0.120 A 
ATOM      7  C   UNL     1     -30.057 -10.389  17.281  0.00  0.00    +0.044 A 
ATOM      8  C   UNL     1     -28.785 -10.796  17.690  0.00  0.00    +0.013 A 
ATOM      9  C   UNL     1     -28.651 -11.741  18.714  0.00  0.00    +0.002 A 
ATOM     10  C   UNL     1     -27.389 -12.172  19.148  0.00  0.00    +0.029 A 
ATOM     11  N   UNL     1     -32.529 -10.538  17.526  0.00  0.00    -0.325 N 
ATOM     12  H   UNL     1     -33.329 -11.046  17.966  0.00  0.00    +0.148 HD
ENDROOT
BRANCH   1  14
ATOM     13  N   UNL     1     -24.951 -13.919  20.978  0.00  0.00    -0.191 NA
ATOM     14  C   UNL     1     -25.992 -13.563  20.620  0.00  0.00    +0.099 C 
ENDBRANCH   1  14
BRANCH  11  15
ATOM     15  C   UNL     1     -32.847  -9.441  16.610  0.00  0.00    +0.138 C 
BRANCH  15  16
ATOM     16  C   UNL     1     -33.473  -9.968  15.346  0.00  0.00    -0.028 A 
ATOM     17  C   UNL     1     -34.489  -9.247  14.700  0.00  0.00    +0.005 A 
ATOM     18  C   UNL     1     -35.062  -9.737  13.526  0.00  0.00    +0.003 A 
ATOM     19  C   UNL     1     -34.623 -10.945  12.980  0.00  0.00    +0.033 A 
ATOM     20  C   UNL     1     -33.598 -11.677  13.602  0.00  0.00    +0.127 A 
ATOM     21  C   UNL     1     -33.025 -11.176  14.787  0.00  0.00    +0.038 A 
BRANCH  20  22
ATOM     22  N   UNL     1     -33.144 -12.920  13.035  0.00  0.00    +0.056 N 
ATOM     23  O   UNL     1     -33.775 -13.460  11.939  0.00  0.00    -0.126 OA
ATOM     24  O   UNL     1     -32.172 -13.529  13.529  0.00  0.00    -0.126 OA
ENDBRANCH  20  22
ENDBRANCH  15  16
ENDBRANCH  11  15
TORSDOF 4
ENDMDL
MODEL 2
REMARK VINA RESULT:    -4.464      1.653      2.426
REMARK INTER + INTRA:          -5.837
REMARK INTER:                  -5.908
REMARK INTRA:                   0.071
REMARK UNBOUND:                -0.329
REMARK  Name = 
REMARK  4 active torsions:
REMARK  status: ('A' for Active; 'I' for Inactive)
REMARK    1  A    between atoms: C_2  and  C_3
REMARK    2  A    between atoms: N_13  and  C_14
REMARK    3  A    between atoms: C_14  and  C_15
REMARK    4  A    between atoms: C_19  and  N_21
REMARK                            x       y       z     vdW  Elec       q    Type
REMARK                         _______ _______ _______ _____ _____    ______ ____
ROOT
ATOM      1  C   UNL     1     -27.883 -13.102  19.981  0.00  0.00    +0.052 A 
ATOM      2  C   UNL     1     -27.186 -12.136  19.244  0.00  0.00    +0.021 A 
ATOM      3  C   UNL     1     -27.844 -11.387  18.264  0.00  0.00    +0.029 A 
ATOM      4  C   UNL     1     -29.203 -11.601  18.014  0.00  0.00    +0.073 A 
ATOM      5  N   UNL     1     -29.845 -10.876  17.060  0.00  0.00    -0.232 NA
ATOM      6  C   UNL     1     -31.167 -11.050  16.779  0.00  0.00    +0.120 A 
ATOM      7  C   UNL     1     -31.903 -12.005  17.502  0.00  0.00    +0.044 A 
ATOM      8  C   UNL     1     -31.271 -12.767  18.487  0.00  0.00    +0.013 A 
ATOM      9  C   UNL     1     -29.911 -12.573  18.754  0.00  0.00    +0.002 A 
ATOM     10  C   UNL     1     -29.246 -13.321  19.736  0.00  0.00    +0.029 A 
ATOM     11  N   UNL     1     -31.767 -10.242  15.751  0.00  0.00    -0.325 N 
ATOM     12  H   UNL     1     -31.185  -9.489  15.320  0.00  0.00    +0.148 HD
ENDROOT
BRANCH   1  14
ATOM     13  N   UNL     1     -26.651 -14.486  21.799  0.00  0.00    -0.191 NA
ATOM     14  C   UNL     1     -27.200 -13.870  20.990  0.00  0.00    +0.099 C 
ENDBRANCH   1  14
BRANCH  11  15
ATOM     15  C   UNL     1     -33.119 -10.437  15.223  0.00  0.00    +0.138 C 
BRANCH  15  16
ATOM     16  C   UNL     1     -33.114 -11.448  14.107  0.00  0.00    -0.028 A 
ATOM     17  C   UNL     1     -34.228 -11.585  13.264  0.00  0.00    +0.005 A 
ATOM     18  C   UNL     1     -34.216 -12.520  12.228  0.00  0.00    +0.003 A 
ATOM     19  C   UNL     1     -33.091 -13.320  12.016  0.00  0.00    +0.033 A 
ATOM     20  C   UNL     1     -31.959 -13.191  12.839  0.00  0.00    +0.127 A 
ATOM     21  C   UNL     1     -31.979 -12.245  13.883  0.00  0.00    +0.038 A 
BRANCH  20  22
ATOM     22  N   UNL     1     -30.800 -14.013  12.616  0.00  0.00    +0.056 N 
ATOM     23  O   UNL     1     -29.579 -13.659  13.143  0.00  0.00    -0.126 OA
ATOM     24  O   UNL     1     -30.880 -15.060  11.938  0.00  0.00    -0.126 OA
ENDBRANCH  20  22
ENDBRANCH  15  16
ENDBRANCH  11  15
TORSDOF 4
ENDMDL
MODEL 3
REMARK VINA RESULT:    -4.349      4.512      6.176
REMARK INTER + INTRA:          -5.695
REMARK INTER:                  -5.414
REMARK INTRA:                  -0.281
REMARK UNBOUND:                -0.329
REMARK  Name = 
REMARK  4 active torsions:
REMARK  status: ('A' for Active; 'I' for Inactive)
REMARK    1  A    between atoms: C_2  and  C_3
REMARK    2  A    between atoms: N_13  and  C_14
REMARK    3  A    between atoms: C_14  and  C_15
REMARK    4  A    between atoms: C_19  and  N_21
REMARK                            x       y       z     vdW  Elec       q    Type
REMARK                         _______ _______ _______ _____ _____    ______ ____
ROOT
ATOM      1  C   UNL     1     -29.730 -14.164  13.897  0.00  0.00    +0.052 A 
ATOM      2  C   UNL     1     -29.552 -14.674  15.190  0.00  0.00    +0.021 A 
ATOM      3  C   UNL     1     -30.329 -14.195  16.249  0.00  0.00    +0.029 A 
ATOM      4  C   UNL     1     -31.288 -13.203  16.022  0.00  0.00    +0.073 A 
ATOM      5  N   UNL     1     -32.043 -12.733  17.051  0.00  0.00    -0.232 NA
ATOM      6  C   UNL     1     -32.987 -11.766  16.879  0.00  0.00    +0.120 A 
ATOM      7  C   UNL     1     -33.200 -11.234  15.595  0.00  0.00    +0.044 A 
ATOM      8  C   UNL     1     -32.438 -11.694  14.519  0.00  0.00    +0.013 A 
ATOM      9  C   UNL     1     -31.471 -12.686  14.722  0.00  0.00    +0.002 A 
ATOM     10  C   UNL     1     -30.690 -13.170  13.662  0.00  0.00    +0.029 A 
ATOM     11  N   UNL     1     -33.739 -11.324  18.023  0.00  0.00    -0.325 N 
ATOM     12  H   UNL     1     -33.594 -11.828  18.927  0.00  0.00    +0.148 HD
ENDROOT
BRANCH   1  14
ATOM     13  N   UNL     1     -28.284 -15.062  11.938  0.00  0.00    -0.191 NA
ATOM     14  C   UNL     1     -28.928 -14.662  12.810  0.00  0.00    +0.099 C 
ENDBRANCH   1  14
BRANCH  11  15
ATOM     15  C   UNL     1     -34.654 -10.181  18.026  0.00  0.00    +0.138 C 
BRANCH  15  16
ATOM     16  C   UNL     1     -33.955  -8.943  18.524  0.00  0.00    -0.028 A 
ATOM     17  C   UNL     1     -34.629  -7.712  18.562  0.00  0.00    +0.005 A 
ATOM     18  C   UNL     1     -33.979  -6.569  19.029  0.00  0.00    +0.003 A 
ATOM     19  C   UNL     1     -32.656  -6.643  19.471  0.00  0.00    +0.033 A 
ATOM     20  C   UNL     1     -31.967  -7.867  19.455  0.00  0.00    +0.127 A 
ATOM     21  C   UNL     1     -32.629  -9.016  18.981  0.00  0.00    +0.038 A 
BRANCH  20  22
ATOM     22  N   UNL     1     -30.605  -7.942  19.915  0.00  0.00    +0.056 N 
ATOM     23  O   UNL     1     -29.821  -9.030  19.605  0.00  0.00    -0.126 OA
ATOM     24  O   UNL     1     -30.113  -7.024  20.604  0.00  0.00    -0.126 OA
ENDBRANCH  20  22
ENDBRANCH  15  16
ENDBRANCH  11  15
TORSDOF 4
ENDMDL
MODEL 4
REMARK VINA RESULT:    -4.253      3.124      3.741
REMARK INTER + INTRA:          -5.577
REMARK INTER:                  -5.180
REMARK INTRA:                  -0.397
REMARK UNBOUND:                -0.329
REMARK  Name = 
REMARK  4 active torsions:
REMARK  status: ('A' for Active; 'I' for Inactive)
REMARK    1  A    between atoms: C_2  and  C_3
REMARK    2  A    between atoms: N_13  and  C_14
REMARK    3  A    between atoms: C_14  and  C_15
REMARK    4  A    between atoms: C_19  and  N_21
REMARK                            x       y       z     vdW  Elec       q    Type
REMARK                         _______ _______ _______ _____ _____    ______ ____
ROOT
ATOM      1  C   UNL     1     -27.417 -13.382  20.246  0.00  0.00    +0.052 A 
ATOM      2  C   UNL     1     -28.419 -13.359  21.225  0.00  0.00    +0.021 A 
ATOM      3  C   UNL     1     -29.756 -13.172  20.861  0.00  0.00    +0.029 A 
ATOM      4  C   UNL     1     -30.098 -13.007  19.515  0.00  0.00    +0.073 A 
ATOM      5  N   UNL     1     -31.397 -12.823  19.157  0.00  0.00    -0.232 NA
ATOM      6  C   UNL     1     -31.779 -12.655  17.861  0.00  0.00    +0.120 A 
ATOM      7  C   UNL     1     -30.803 -12.680  16.849  0.00  0.00    +0.044 A 
ATOM      8  C   UNL     1     -29.460 -12.864  17.184  0.00  0.00    +0.013 A 
ATOM      9  C   UNL     1     -29.093 -13.030  18.525  0.00  0.00    +0.002 A 
ATOM     10  C   UNL     1     -27.753 -13.218  18.896  0.00  0.00    +0.029 A 
ATOM     11  N   UNL     1     -33.175 -12.463  17.571  0.00  0.00    -0.325 N 
ATOM     12  H   UNL     1     -33.853 -12.549  18.360  0.00  0.00    +0.148 HD
ENDROOT
BRANCH   1  14
ATOM     13  N   UNL     1     -24.938 -13.731  20.934  0.00  0.00    -0.191 NA
ATOM     14  C   UNL     1     -26.042 -13.575  20.628  0.00  0.00    +0.099 C 
ENDBRANCH   1  14
BRANCH  11  15
ATOM     15  C   UNL     1     -33.709 -12.098  16.258  0.00  0.00    +0.138 C 
BRANCH  15  16
ATOM     16  C   UNL     1     -34.073 -10.637  16.219  0.00  0.00    -0.028 A 
ATOM     17  C   UNL     1     -34.300  -9.991  14.993  0.00  0.00    +0.005 A 
ATOM     18  C   UNL     1     -34.642  -8.639  14.963  0.00  0.00    +0.003 A 
ATOM     19  C   UNL     1     -34.771  -7.920  16.153  0.00  0.00    +0.033 A 
ATOM     20  C   UNL     1     -34.563  -8.548  17.392  0.00  0.00    +0.127 A 
ATOM     21  C   UNL     1     -34.217  -9.914  17.414  0.00  0.00    +0.038 A 
BRANCH  20  22
ATOM     22  N   UNL     1     -34.701  -7.806  18.617  0.00  0.00    +0.056 N 
ATOM     23  O   UNL     1     -34.439  -8.403  19.829  0.00  0.00    -0.126 OA
ATOM     24  O   UNL     1     -35.062  -6.611  18.603  0.00  0.00    -0.126 OA
ENDBRANCH  20  22
ENDBRANCH  15  16
ENDBRANCH  11  15
TORSDOF 4
ENDMDL
MODEL 5
REMARK VINA RESULT:    -3.797      3.385      5.436
REMARK INTER + INTRA:          -5.014
REMARK INTER:                  -4.642
REMARK INTRA:                  -0.371
REMARK UNBOUND:                -0.329
REMARK  Name = 
REMARK  4 active torsions:
REMARK  status: ('A' for Active; 'I' for Inactive)
REMARK    1  A    between atoms: C_2  and  C_3
REMARK    2  A    between atoms: N_13  and  C_14
REMARK    3  A    between atoms: C_14  and  C_15
REMARK    4  A    between atoms: C_19  and  N_21
REMARK                            x       y       z     vdW  Elec       q    Type
REMARK                         _______ _______ _______ _____ _____    ______ ____
ROOT
ATOM      1  C   UNL     1     -32.106  -7.568  19.889  0.00  0.00    +0.052 A 
ATOM      2  C   UNL     1     -33.329  -8.019  19.377  0.00  0.00    +0.021 A 
ATOM      3  C   UNL     1     -33.417  -9.275  18.768  0.00  0.00    +0.029 A 
ATOM      4  C   UNL     1     -32.283 -10.086  18.667  0.00  0.00    +0.073 A 
ATOM      5  N   UNL     1     -32.365 -11.306  18.074  0.00  0.00    -0.232 NA
ATOM      6  C   UNL     1     -31.287 -12.130  17.950  0.00  0.00    +0.120 A 
ATOM      7  C   UNL     1     -30.043 -11.715  18.459  0.00  0.00    +0.044 A 
ATOM      8  C   UNL     1     -29.927 -10.466  19.072  0.00  0.00    +0.013 A 
ATOM      9  C   UNL     1     -31.048  -9.636  19.182  0.00  0.00    +0.002 A 
ATOM     10  C   UNL     1     -30.965  -8.375  19.793  0.00  0.00    +0.029 A 
ATOM     11  N   UNL     1     -31.461 -13.404  17.305  0.00  0.00    -0.325 N 
ATOM     12  H   UNL     1     -32.430 -13.686  17.035  0.00  0.00    +0.148 HD
ENDROOT
BRANCH   1  14
ATOM     13  N   UNL     1     -31.954  -5.235  21.019  0.00  0.00    -0.191 NA
ATOM     14  C   UNL     1     -32.022  -6.274  20.516  0.00  0.00    +0.099 C 
ENDBRANCH   1  14
BRANCH  11  15
ATOM     15  C   UNL     1     -30.369 -14.311  16.946  0.00  0.00    +0.138 C 
BRANCH  15  16
ATOM     16  C   UNL     1     -30.191 -14.365  15.451  0.00  0.00    -0.028 A 
ATOM     17  C   UNL     1     -29.080 -15.011  14.889  0.00  0.00    +0.005 A 
ATOM     18  C   UNL     1     -28.923 -15.062  13.503  0.00  0.00    +0.003 A 
ATOM     19  C   UNL     1     -29.875 -14.479  12.666  0.00  0.00    +0.033 A 
ATOM     20  C   UNL     1     -31.003 -13.838  13.206  0.00  0.00    +0.127 A 
ATOM     21  C   UNL     1     -31.154 -13.789  14.606  0.00  0.00    +0.038 A 
BRANCH  20  22
ATOM     22  N   UNL     1     -31.985 -13.240  12.340  0.00  0.00    +0.056 N 
ATOM     23  O   UNL     1     -33.089 -13.956  11.938  0.00  0.00    -0.126 OA
ATOM     24  O   UNL     1     -31.852 -12.065  11.938  0.00  0.00    -0.126 OA
ENDBRANCH  20  22
ENDBRANCH  15  16
ENDBRANCH  11  15
TORSDOF 4
ENDMDL
MODEL 6
REMARK VINA RESULT:    -3.548      3.695      5.281
REMARK INTER + INTRA:          -4.707
REMARK INTER:                  -4.275
REMARK INTRA:                  -0.432
REMARK UNBOUND:                -0.329
REMARK  Name = 
REMARK  4 active torsions:
REMARK  status: ('A' for Active; 'I' for Inactive)
REMARK    1  A    between atoms: C_2  and  C_3
REMARK    2  A    between atoms: N_13  and  C_14
REMARK    3  A    between atoms: C_14  and  C_15
REMARK    4  A    between atoms: C_19  and  N_21
REMARK                            x       y       z     vdW  Elec       q    Type
REMARK                         _______ _______ _______ _____ _____    ______ ____
ROOT
ATOM      1  C   UNL     1     -31.309  -6.995  20.541  0.00  0.00    +0.052 A 
ATOM      2  C   UNL     1     -32.521  -6.877  19.847  0.00  0.00    +0.021 A 
ATOM      3  C   UNL     1     -32.987  -7.934  19.059  0.00  0.00    +0.029 A 
ATOM      4  C   UNL     1     -32.243  -9.114  18.959  0.00  0.00    +0.073 A 
ATOM      5  N   UNL     1     -32.693 -10.142  18.191  0.00  0.00    -0.232 NA
ATOM      6  C   UNL     1     -32.003 -11.309  18.060  0.00  0.00    +0.120 A 
ATOM      7  C   UNL     1     -30.785 -11.468  18.747  0.00  0.00    +0.044 A 
ATOM      8  C   UNL     1     -30.297 -10.429  19.541  0.00  0.00    +0.013 A 
ATOM      9  C   UNL     1     -31.022  -9.238  19.656  0.00  0.00    +0.002 A 
ATOM     10  C   UNL     1     -30.559  -8.175  20.445  0.00  0.00    +0.029 A 
ATOM     11  N   UNL     1     -32.549 -12.345  17.225  0.00  0.00    -0.325 N 
ATOM     12  H   UNL     1     -33.500 -12.195  16.821  0.00  0.00    +0.148 HD
ENDROOT
BRANCH   1  14
ATOM     13  N   UNL     1     -30.454  -5.027  22.003  0.00  0.00    -0.191 NA
ATOM     14  C   UNL     1     -30.835  -5.903  21.352  0.00  0.00    +0.099 C 
ENDBRANCH   1  14
BRANCH  11  15
ATOM     15  C   UNL     1     -31.842 -13.572  16.853  0.00  0.00    +0.138 C 
BRANCH  15  16
ATOM     16  C   UNL     1     -31.484 -13.557  15.390  0.00  0.00    -0.028 A 
ATOM     17  C   UNL     1     -32.326 -12.932  14.457  0.00  0.00    +0.005 A 
ATOM     18  C   UNL     1     -31.986 -12.917  13.103  0.00  0.00    +0.003 A 
ATOM     19  C   UNL     1     -30.802 -13.515  12.668  0.00  0.00    +0.033 A 
ATOM     20  C   UNL     1     -29.937 -14.134  13.586  0.00  0.00    +0.127 A 
ATOM     21  C   UNL     1     -30.287 -14.146  14.951  0.00  0.00    +0.038 A 
BRANCH  20  22
ATOM     22  N   UNL     1     -28.715 -14.746  13.136  0.00  0.00    +0.056 N 
ATOM     23  O   UNL     1     -27.689 -14.991  14.020  0.00  0.00    -0.126 OA
ATOM     24  O   UNL     1     -28.563 -15.062  11.938  0.00  0.00    -0.126 OA
ENDBRANCH  20  22
ENDBRANCH  15  16
ENDBRANCH  11  15
TORSDOF 4
ENDMDL
