MODEL 1
REMARK VINA RESULT:    -3.595      0.000      0.000
REMARK INTER + INTRA:          -5.063
REMARK INTER:                  -4.435
REMARK INTRA:                  -0.627
REMARK UNBOUND:                -0.627
REMARK  Name = 
REMARK  6 active torsions:
REMARK  status: ('A' for Active; 'I' for Inactive)
REMARK    1  A    between atoms: C_1  and  C_2
REMARK    2  A    between atoms: C_2  and  C_3
REMARK    3  A    between atoms: C_3  and  C_4
REMARK    4  A    between atoms: C_3  and  N_6
REMARK    5  A    between atoms: C_4  and  C_5
REMARK    6  A    between atoms: C_10  and  N_14
REMARK                            x       y       z     vdW  Elec       q    Type
REMARK                         _______ _______ _______ _____ _____    ______ ____
ROOT
ATOM      1  N   UNL     1     -30.676 -11.831  17.658  0.00  0.00    -0.311 N 
ATOM      2  C   UNL     1     -29.490 -12.193  18.378  0.00  0.00    +0.217 A 
ATOM      3  N   UNL     1     -28.282 -11.682  18.025  0.00  0.00    -0.221 NA
ATOM      4  C   UNL     1     -27.154 -12.018  18.700  0.00  0.00    +0.150 A 
ATOM      5  C   UNL     1     -27.217 -12.895  19.791  0.00  0.00    +0.184 A 
ATOM      6  C   UNL     1     -28.476 -13.438  20.127  0.00  0.00    +0.152 A 
ATOM      7  N   UNL     1     -28.628 -14.417  21.159  0.00  0.00    -0.341 N 
ATOM      8  N   UNL     1     -29.574 -13.064  19.416  0.00  0.00    -0.198 NA
ATOM      9  H   UNL     1     -31.586 -12.234  17.979  0.00  0.00    +0.149 HD
ATOM     10  H   UNL     1     -29.584 -14.737  21.431  0.00  0.00    +0.144 HD
ATOM     11  H   UNL     1     -27.814 -14.918  21.573  0.00  0.00    +0.144 HD
ENDROOT
BRANCH   5  12
ATOM     12  N   UNL     1     -26.025 -13.189  20.538  0.00  0.00    +0.061 N 
ATOM     13  O   UNL     1     -26.114 -13.505  21.875  0.00  0.00    -0.126 OA
ATOM     14  O   UNL     1     -24.940 -13.371  19.948  0.00  0.00    -0.126 OA
ENDBRANCH   5  12
BRANCH   1  15
ATOM     15  C   UNL     1     -30.654 -10.899  16.523  0.00  0.00    +0.073 C 
BRANCH  15  17
ATOM     16  C   UNL     1     -31.180 -12.975  15.120  0.00  0.00    +0.006 C 
ATOM     17  C   UNL     1     -31.475 -11.492  15.344  0.00  0.00    +0.019 C 
ENDBRANCH  15  17
BRANCH  15  18
ATOM     18  C   UNL     1     -31.195  -9.524  16.979  0.00  0.00    +0.019 C 
ATOM     19  C   UNL     1     -32.707  -9.386  16.809  0.00  0.00    +0.006 C 
ENDBRANCH  15  18
ENDBRANCH   1  15
TORSDOF 4
ENDMDL
MODEL 2
REMARK VINA RESULT:    -3.560      2.494      3.378
REMARK INTER + INTRA:          -5.020
REMARK INTER:                  -4.360
REMARK INTRA:                  -0.660
REMARK UNBOUND:                -0.627
REMARK  Name = 
REMARK  6 active torsions:
REMARK  status: ('A' for Active; 'I' for Inactive)
REMARK    1  A    between atoms: C_1  and  C_2
REMARK    2  A    between atoms: C_2  and  C_3
REMARK    3  A    between atoms: C_3  and  C_4
REMARK    4  A    between atoms: C_3  and  N_6
REMARK    5  A    between atoms: C_4  and  C_5
REMARK    6  A    between atoms: C_10  and  N_14
REMARK                            x       y       z     vdW  Elec       q    Type
REMARK                         _______ _______ _______ _____ _____    ______ ____
ROOT
ATOM      1  N   UNL     1     -31.699 -12.879  14.786  0.00  0.00    -0.311 N 
ATOM      2  C   UNL     1     -30.936 -12.436  15.916  0.00  0.00    +0.217 A 
ATOM      3  N   UNL     1     -30.737 -11.112  16.142  0.00  0.00    -0.221 NA
ATOM      4  C   UNL     1     -30.016 -10.682  17.208  0.00  0.00    +0.150 A 
ATOM      5  C   UNL     1     -29.470 -11.604  18.111  0.00  0.00    +0.184 A 
ATOM      6  C   UNL     1     -29.663 -12.977  17.846  0.00  0.00    +0.152 A 
ATOM      7  N   UNL     1     -29.062 -13.996  18.651  0.00  0.00    -0.341 N 
ATOM      8  N   UNL     1     -30.396 -13.351  16.762  0.00  0.00    -0.198 NA
ATOM      9  H   UNL     1     -31.842 -13.908  14.666  0.00  0.00    +0.149 HD
ATOM     10  H   UNL     1     -29.290 -14.998  18.472  0.00  0.00    +0.144 HD
ATOM     11  H   UNL     1     -28.306 -13.787  19.338  0.00  0.00    +0.144 HD
ENDROOT
BRANCH   5  12
ATOM     12  N   UNL     1     -28.767 -11.133  19.272  0.00  0.00    +0.061 N 
ATOM     13  O   UNL     1     -29.404 -10.310  20.172  0.00  0.00    -0.126 OA
ATOM     14  O   UNL     1     -27.664 -11.628  19.585  0.00  0.00    -0.126 OA
ENDBRANCH   5  12
BRANCH   1  15
ATOM     15  C   UNL     1     -32.305 -11.944  13.830  0.00  0.00    +0.073 C 
BRANCH  15  17
ATOM     16  C   UNL     1     -33.545 -13.142  11.938  0.00  0.00    +0.006 C 
ATOM     17  C   UNL     1     -32.219 -12.535  12.395  0.00  0.00    +0.019 C 
ENDBRANCH  15  17
BRANCH  15  18
ATOM     18  C   UNL     1     -33.762 -11.649  14.255  0.00  0.00    +0.019 C 
ATOM     19  C   UNL     1     -34.015 -10.171  14.548  0.00  0.00    +0.006 C 
ENDBRANCH  15  18
ENDBRANCH   1  15
TORSDOF 4
ENDMDL
MODEL 3
REMARK VINA RESULT:    -3.533      2.763      3.781
REMARK INTER + INTRA:          -4.987
REMARK INTER:                  -4.344
REMARK INTRA:                  -0.642
REMARK UNBOUND:                -0.627
REMARK  Name = 
REMARK  6 active torsions:
REMARK  status: ('A' for Active; 'I' for Inactive)
REMARK    1  A    between atoms: C_1  and  C_2
REMARK    2  A    between atoms: C_2  and  C_3
REMARK    3  A    between atoms: C_3  and  C_4
REMARK    4  A    between atoms: C_3  and  N_6
REMARK    5  A    between atoms: C_4  and  C_5
REMARK    6  A    between atoms: C_10  and  N_14
REMARK                            x       y       z     vdW  Elec       q    Type
REMARK                         _______ _______ _______ _____ _____    ______ ____
ROOT
ATOM      1  N   UNL     1     -31.017 -14.079  15.397  0.00  0.00    -0.311 N 
ATOM      2  C   UNL     1     -30.668 -13.354  16.583  0.00  0.00    +0.217 A 
ATOM      3  N   UNL     1     -30.117 -12.115  16.502  0.00  0.00    -0.221 NA
ATOM      4  C   UNL     1     -29.783 -11.421  17.618  0.00  0.00    +0.150 A 
ATOM      5  C   UNL     1     -30.014 -11.968  18.888  0.00  0.00    +0.184 A 
ATOM      6  C   UNL     1     -30.563 -13.267  18.953  0.00  0.00    +0.152 A 
ATOM      7  N   UNL     1     -30.744 -13.951  20.197  0.00  0.00    -0.341 N 
ATOM      8  N   UNL     1     -30.880 -13.917  17.801  0.00  0.00    -0.198 NA
ATOM      9  H   UNL     1     -31.459 -15.020  15.510  0.00  0.00    +0.149 HD
ATOM     10  H   UNL     1     -31.223 -14.878  20.213  0.00  0.00    +0.144 HD
ATOM     11  H   UNL     1     -30.308 -13.617  21.083  0.00  0.00    +0.144 HD
ENDROOT
BRANCH   5  12
ATOM     12  N   UNL     1     -29.718 -11.194  20.061  0.00  0.00    +0.061 N 
ATOM     13  O   UNL     1     -29.234 -11.817  21.189  0.00  0.00    -0.126 OA
ATOM     14  O   UNL     1     -29.690  -9.947  20.004  0.00  0.00    -0.126 OA
ENDBRANCH   5  12
BRANCH   1  15
ATOM     15  C   UNL     1     -30.810 -13.531  14.050  0.00  0.00    +0.073 C 
BRANCH  15  17
ATOM     16  C   UNL     1     -28.672 -14.868  13.606  0.00  0.00    +0.006 C 
ATOM     17  C   UNL     1     -30.107 -14.591  13.158  0.00  0.00    +0.019 C 
ENDBRANCH  15  17
BRANCH  15  18
ATOM     18  C   UNL     1     -32.169 -13.082  13.464  0.00  0.00    +0.019 C 
ATOM     19  C   UNL     1     -32.321 -13.409  11.980  0.00  0.00    +0.006 C 
ENDBRANCH  15  18
ENDBRANCH   1  15
TORSDOF 4
ENDMDL
MODEL 4
REMARK VINA RESULT:    -3.514      2.575      4.015
REMARK INTER + INTRA:          -4.964
REMARK INTER:                  -4.443
REMARK INTRA:                  -0.520
REMARK UNBOUND:                -0.627
REMARK  Name = 
REMARK  6 active torsions:
REMARK  status: ('A' for Active; 'I' for Inactive)
REMARK    1  A    between atoms: C_1  and  C_2
REMARK    2  A    between atoms: C_2  and  C_3
REMARK    3  A    between atoms: C_3  and  C_4
REMARK    4  A    between atoms: C_3  and  N_6
REMARK    5  A    between atoms: C_4  and  C_5
REMARK    6  A    between atoms: C_10  and  N_14
REMARK                            x       y       z     vdW  Elec       q    Type
REMARK                         _______ _______ _______ _____ _____    ______ ____
ROOT
ATOM      1  N   UNL     1     -29.184 -13.933  15.337  0.00  0.00    -0.311 N 
ATOM      2  C   UNL     1     -29.328 -13.675  16.739  0.00  0.00    +0.217 A 
ATOM      3  N   UNL     1     -30.528 -13.837  17.355  0.00  0.00    -0.221 NA
ATOM      4  C   UNL     1     -30.675 -13.596  18.682  0.00  0.00    +0.150 A 
ATOM      5  C   UNL     1     -29.579 -13.182  19.451  0.00  0.00    +0.184 A 
ATOM      6  C   UNL     1     -28.346 -12.992  18.790  0.00  0.00    +0.152 A 
ATOM      7  N   UNL     1     -27.195 -12.478  19.468  0.00  0.00    -0.341 N 
ATOM      8  N   UNL     1     -28.256 -13.252  17.458  0.00  0.00    -0.198 NA
ATOM      9  H   UNL     1     -28.236 -13.815  14.912  0.00  0.00    +0.149 HD
ATOM     10  H   UNL     1     -26.281 -12.424  18.966  0.00  0.00    +0.144 HD
ATOM     11  H   UNL     1     -27.256 -12.038  20.411  0.00  0.00    +0.144 HD
ENDROOT
BRANCH   5  12
ATOM     12  N   UNL     1     -29.734 -12.995  20.867  0.00  0.00    +0.061 N 
ATOM     13  O   UNL     1     -28.708 -13.334  21.720  0.00  0.00    -0.126 OA
ATOM     14  O   UNL     1     -30.694 -12.334  21.315  0.00  0.00    -0.126 OA
ENDBRANCH   5  12
BRANCH   1  15
ATOM     15  C   UNL     1     -30.303 -14.388  14.501  0.00  0.00    +0.073 C 
BRANCH  15  17
ATOM     16  C   UNL     1     -31.756 -13.231  12.739  0.00  0.00    +0.006 C 
ATOM     17  C   UNL     1     -31.232 -13.187  14.175  0.00  0.00    +0.019 C 
ENDBRANCH  15  17
BRANCH  15  18
ATOM     18  C   UNL     1     -29.749 -15.062  13.225  0.00  0.00    +0.019 C 
ATOM     19  C   UNL     1     -28.258 -14.807  13.009  0.00  0.00    +0.006 C 
ENDBRANCH  15  18
ENDBRANCH   1  15
TORSDOF 4
ENDMDL
MODEL 5
REMARK VINA RESULT:    -3.452      4.021      5.552
REMARK INTER + INTRA:          -4.887
REMARK INTER:                  -4.646
REMARK INTRA:                  -0.240
REMARK UNBOUND:                -0.627
REMARK  Name = 
REMARK  6 active torsions:
REMARK  status: ('A' for Active; 'I' for Inactive)
REMARK    1  A    between atoms: C_1  and  C_2
REMARK    2  A    between atoms: C_2  and  C_3
REMARK    3  A    between atoms: C_3  and  C_4
REMARK    4  A    between atoms: C_3  and  N_6
REMARK    5  A    between atoms: C_4  and  C_5
REMARK    6  A    between atoms: C_10  and  N_14
REMARK                            x       y       z     vdW  Elec       q    Type
REMARK                         _______ _______ _______ _____ _____    ______ ____
ROOT
ATOM      1  N   UNL     1     -32.104 -11.835  14.022  0.00  0.00    -0.311 N 
ATOM      2  C   UNL     1     -31.772 -11.096  15.204  0.00  0.00    +0.217 A 
ATOM      3  N   UNL     1     -30.656 -11.395  15.919  0.00  0.00    -0.221 NA
ATOM      4  C   UNL     1     -30.333 -10.702  17.039  0.00  0.00    +0.150 A 
ATOM      5  C   UNL     1     -31.145  -9.647  17.477  0.00  0.00    +0.184 A 
ATOM      6  C   UNL     1     -32.315  -9.367  16.738  0.00  0.00    +0.152 A 
ATOM      7  N   UNL     1     -33.258  -8.377  17.160  0.00  0.00    -0.341 N 
ATOM      8  N   UNL     1     -32.589 -10.094  15.622  0.00  0.00    -0.198 NA
ATOM      9  H   UNL     1     -32.961 -11.554  13.494  0.00  0.00    +0.149 HD
ATOM     10  H   UNL     1     -34.072  -8.144  16.549  0.00  0.00    +0.144 HD
ATOM     11  H   UNL     1     -33.236  -7.960  18.115  0.00  0.00    +0.144 HD
ENDROOT
BRANCH   5  12
ATOM     12  N   UNL     1     -30.755  -8.878  18.627  0.00  0.00    +0.061 N 
ATOM     13  O   UNL     1     -31.627  -7.959  19.165  0.00  0.00    -0.126 OA
ATOM     14  O   UNL     1     -29.729  -9.182  19.270  0.00  0.00    -0.126 OA
ENDBRANCH   5  12
BRANCH   1  15
ATOM     15  C   UNL     1     -31.268 -12.933  13.519  0.00  0.00    +0.073 C 
BRANCH  15  17
ATOM     16  C   UNL     1     -29.788 -14.713  14.612  0.00  0.00    +0.006 C 
ATOM     17  C   UNL     1     -31.163 -14.046  14.598  0.00  0.00    +0.019 C 
ENDBRANCH  15  17
BRANCH  15  18
ATOM     18  C   UNL     1     -31.858 -13.460  12.191  0.00  0.00    +0.019 C 
ATOM     19  C   UNL     1     -33.356 -13.195  12.051  0.00  0.00    +0.006 C 
ENDBRANCH  15  18
ENDBRANCH   1  15
TORSDOF 4
ENDMDL
MODEL 6
REMARK VINA RESULT:    -3.440      2.606      3.609
REMARK INTER + INTRA:          -4.872
REMARK INTER:                  -4.218
REMARK INTRA:                  -0.654
REMARK UNBOUND:                -0.627
REMARK  Name = 
REMARK  6 active torsions:
REMARK  status: ('A' for Active; 'I' for Inactive)
REMARK    1  A    between atoms: C_1  and  C_2
REMARK    2  A    between atoms: C_2  and  C_3
REMARK    3  A    between atoms: C_3  and  C_4
REMARK    4  A    between atoms: C_3  and  N_6
REMARK    5  A    between atoms: C_4  and  C_5
REMARK    6  A    between atoms: C_10  and  N_14
REMARK                            x       y       z     vdW  Elec       q    Type
REMARK                         _______ _______ _______ _____ _____    ______ ____
ROOT
ATOM      1  N   UNL     1     -33.100 -12.622  14.977  0.00  0.00    -0.311 N 
ATOM      2  C   UNL     1     -31.951 -12.540  15.830  0.00  0.00    +0.217 A 
ATOM      3  N   UNL     1     -31.258 -11.377  15.949  0.00  0.00    -0.221 NA
ATOM      4  C   UNL     1     -30.169 -11.289  16.753  0.00  0.00    +0.150 A 
ATOM      5  C   UNL     1     -29.742 -12.400  17.492  0.00  0.00    +0.184 A 
ATOM      6  C   UNL     1     -30.458 -13.607  17.336  0.00  0.00    +0.152 A 
ATOM      7  N   UNL     1     -30.043 -14.821  17.970  0.00  0.00    -0.341 N 
ATOM      8  N   UNL     1     -31.544 -13.638  16.517  0.00  0.00    -0.198 NA
ATOM      9  H   UNL     1     -33.614 -13.532  14.935  0.00  0.00    +0.149 HD
ATOM     10  H   UNL     1     -30.639 -15.674  17.894  0.00  0.00    +0.144 HD
ATOM     11  H   UNL     1     -29.103 -14.926  18.408  0.00  0.00    +0.144 HD
ENDROOT
BRANCH   5  12
ATOM     12  N   UNL     1     -28.629 -12.273  18.391  0.00  0.00    +0.061 N 
ATOM     13  O   UNL     1     -27.706 -13.290  18.488  0.00  0.00    -0.126 OA
ATOM     14  O   UNL     1     -28.369 -11.173  18.923  0.00  0.00    -0.126 OA
ENDBRANCH   5  12
BRANCH   1  15
ATOM     15  C   UNL     1     -33.590 -11.474  14.203  0.00  0.00    +0.073 C 
BRANCH  15  17
ATOM     16  C   UNL     1     -33.379 -12.997  12.156  0.00  0.00    +0.006 C 
ATOM     17  C   UNL     1     -34.248 -11.974  12.888  0.00  0.00    +0.019 C 
ENDBRANCH  15  17
BRANCH  15  18
ATOM     18  C   UNL     1     -34.570 -10.651  15.071  0.00  0.00    +0.019 C 
ATOM     19  C   UNL     1     -34.156  -9.189  15.223  0.00  0.00    +0.006 C 
ENDBRANCH  15  18
ENDBRANCH   1  15
TORSDOF 4
ENDMDL
MODEL 7
REMARK VINA RESULT:    -3.434      1.722      2.210
REMARK INTER + INTRA:          -4.865
REMARK INTER:                  -4.170
REMARK INTRA:                  -0.695
REMARK UNBOUND:                -0.627
REMARK  Name = 
REMARK  6 active torsions:
REMARK  status: ('A' for Active; 'I' for Inactive)
REMARK    1  A    between atoms: C_1  and  C_2
REMARK    2  A    between atoms: C_2  and  C_3
REMARK    3  A    between atoms: C_3  and  C_4
REMARK    4  A    between atoms: C_3  and  N_6
REMARK    5  A    between atoms: C_4  and  C_5
REMARK    6  A    between atoms: C_10  and  N_14
REMARK                            x       y       z     vdW  Elec       q    Type
REMARK                         _______ _______ _______ _____ _____    ______ ____
ROOT
ATOM      1  N   UNL     1     -30.817 -10.709  19.753  0.00  0.00    -0.311 N 
ATOM      2  C   UNL     1     -29.639 -11.519  19.845  0.00  0.00    +0.217 A 
ATOM      3  N   UNL     1     -28.557 -11.260  19.065  0.00  0.00    -0.221 NA
ATOM      4  C   UNL     1     -27.436 -12.021  19.144  0.00  0.00    +0.150 A 
ATOM      5  C   UNL     1     -27.369 -13.090  20.047  0.00  0.00    +0.184 A 
ATOM      6  C   UNL     1     -28.512 -13.362  20.830  0.00  0.00    +0.152 A 
ATOM      7  N   UNL     1     -28.578 -14.490  21.707  0.00  0.00    -0.341 N 
ATOM      8  N   UNL     1     -29.608 -12.565  20.711  0.00  0.00    -0.198 NA
ATOM      9  H   UNL     1     -31.617 -10.934  20.389  0.00  0.00    +0.149 HD
ATOM     10  H   UNL     1     -29.408 -14.616  22.327  0.00  0.00    +0.144 HD
ATOM     11  H   UNL     1     -27.881 -15.265  21.669  0.00  0.00    +0.144 HD
ENDROOT
BRANCH   5  12
ATOM     12  N   UNL     1     -26.153 -13.845  20.167  0.00  0.00    +0.061 N 
ATOM     13  O   UNL     1     -24.938 -13.203  20.102  0.00  0.00    -0.126 OA
ATOM     14  O   UNL     1     -26.184 -15.036  20.542  0.00  0.00    -0.126 OA
ENDBRANCH   5  12
BRANCH   1  15
ATOM     15  C   UNL     1     -30.919  -9.567  18.835  0.00  0.00    +0.073 C 
BRANCH  15  17
ATOM     16  C   UNL     1     -30.845  -9.749  16.282  0.00  0.00    +0.006 C 
ATOM     17  C   UNL     1     -31.669 -10.000  17.545  0.00  0.00    +0.019 C 
ENDBRANCH  15  17
BRANCH  15  18
ATOM     18  C   UNL     1     -31.621  -8.391  19.553  0.00  0.00    +0.019 C 
ATOM     19  C   UNL     1     -30.781  -7.787  20.677  0.00  0.00    +0.006 C 
ENDBRANCH  15  18
ENDBRANCH   1  15
TORSDOF 4
ENDMDL
MODEL 8
REMARK VINA RESULT:    -3.302      4.974      6.078
REMARK INTER + INTRA:          -4.702
REMARK INTER:                  -4.042
REMARK INTRA:                  -0.660
REMARK UNBOUND:                -0.627
REMARK  Name = 
REMARK  6 active torsions:
REMARK  status: ('A' for Active; 'I' for Inactive)
REMARK    1  A    between atoms: C_1  and  C_2
REMARK    2  A    between atoms: C_2  and  C_3
REMARK    3  A    between atoms: C_3  and  C_4
REMARK    4  A    between atoms: C_3  and  N_6
REMARK    5  A    between atoms: C_4  and  C_5
REMARK    6  A    between atoms: C_10  and  N_14
REMARK                            x       y       z     vdW  Elec       q    Type
REMARK                         _______ _______ _______ _____ _____    ______ ____
ROOT
ATOM      1  N   UNL     1     -31.680 -11.908  13.926  0.00  0.00    -0.311 N 
ATOM      2  C   UNL     1     -32.091 -11.594  15.262  0.00  0.00    +0.217 A 
ATOM      3  N   UNL     1     -32.601 -12.556  16.075  0.00  0.00    -0.221 NA
ATOM      4  C   UNL     1     -32.992 -12.269  17.342  0.00  0.00    +0.150 A 
ATOM      5  C   UNL     1     -32.866 -10.967  17.844  0.00  0.00    +0.184 A 
ATOM      6  C   UNL     1     -32.360  -9.974  16.977  0.00  0.00    +0.152 A 
ATOM      7  N   UNL     1     -32.286  -8.598  17.363  0.00  0.00    -0.341 N 
ATOM      8  N   UNL     1     -31.981 -10.319  15.717  0.00  0.00    -0.198 NA
ATOM      9  H   UNL     1     -31.274 -11.139  13.345  0.00  0.00    +0.149 HD
ATOM     10  H   UNL     1     -31.835  -7.906  16.725  0.00  0.00    +0.144 HD
ATOM     11  H   UNL     1     -32.774  -8.231  18.208  0.00  0.00    +0.144 HD
ENDROOT
BRANCH   5  12
ATOM     12  N   UNL     1     -33.222 -10.693  19.209  0.00  0.00    +0.061 N 
ATOM     13  O   UNL     1     -33.910  -9.542  19.520  0.00  0.00    -0.126 OA
ATOM     14  O   UNL     1     -33.107 -11.578  20.081  0.00  0.00    -0.126 OA
ENDBRANCH   5  12
BRANCH   1  15
ATOM     15  C   UNL     1     -31.777 -13.264  13.370  0.00  0.00    +0.073 C 
BRANCH  15  17
ATOM     16  C   UNL     1     -33.817 -12.680  11.939  0.00  0.00    +0.006 C 
ATOM     17  C   UNL     1     -32.380 -13.201  11.940  0.00  0.00    +0.019 C 
ENDBRANCH  15  17
BRANCH  15  18
ATOM     18  C   UNL     1     -30.379 -13.926  13.387  0.00  0.00    +0.019 C 
ATOM     19  C   UNL     1     -30.157 -14.830  14.598  0.00  0.00    +0.006 C 
ENDBRANCH  15  18
ENDBRANCH   1  15
TORSDOF 4
ENDMDL
