MODEL 1
REMARK VINA RESULT:    -4.951      0.000      0.000
REMARK INTER + INTRA:          -6.439
REMARK INTER:                  -6.109
REMARK INTRA:                  -0.331
REMARK UNBOUND:                -0.331
REMARK  Name = 
REMARK  4 active torsions:
REMARK  status: ('A' for Active; 'I' for Inactive)
REMARK    1  A    between atoms: C_2  and  C_3
REMARK    2  A    between atoms: N_13  and  C_14
REMARK    3  A    between atoms: C_14  and  C_15
REMARK    4  A    between atoms: C_19  and  N_21
REMARK                            x       y       z     vdW  Elec       q    Type
REMARK                         _______ _______ _______ _____ _____    ______ ____
ROOT
ATOM      1  C   UNL     1     -27.275 -13.113  20.127  0.00  0.00    +0.052 A 
ATOM      2  C   UNL     1     -28.433 -13.636  20.716  0.00  0.00    +0.021 A 
ATOM      3  C   UNL     1     -29.695 -13.213  20.287  0.00  0.00    +0.029 A 
ATOM      4  C   UNL     1     -29.806 -12.265  19.265  0.00  0.00    +0.073 A 
ATOM      5  N   UNL     1     -31.031 -11.850  18.847  0.00  0.00    -0.232 NA
ATOM      6  C   UNL     1     -31.189 -10.927  17.858  0.00  0.00    +0.120 A 
ATOM      7  C   UNL     1     -30.051 -10.384  17.236  0.00  0.00    +0.044 A 
ATOM      8  C   UNL     1     -28.778 -10.788  17.646  0.00  0.00    +0.013 A 
ATOM      9  C   UNL     1     -28.642 -11.735  18.667  0.00  0.00    +0.002 A 
ATOM     10  C   UNL     1     -27.379 -12.162  19.102  0.00  0.00    +0.029 A 
ATOM     11  N   UNL     1     -32.522 -10.542  17.478  0.00  0.00    -0.325 N 
ATOM     12  H   UNL     1     -33.321 -11.054  17.916  0.00  0.00    +0.148 HD
ENDROOT
BRANCH   1  14
ATOM     13  N   UNL     1     -24.938 -13.905  20.932  0.00  0.00    -0.191 NA
ATOM     14  C   UNL     1     -25.979 -13.552  20.573  0.00  0.00    +0.099 C 
ENDBRANCH   1  14
BRANCH  11  15
ATOM     15  C   UNL     1     -32.843  -9.444  16.564  0.00  0.00    +0.138 C 
BRANCH  15  16
ATOM     16  C   UNL     1     -33.478  -9.970  15.303  0.00  0.00    -0.028 A 
ATOM     17  C   UNL     1     -34.482  -9.236  14.652  0.00  0.00    +0.005 A 
ATOM     18  C   UNL     1     -35.062  -9.725  13.481  0.00  0.00    +0.003 A 
ATOM     19  C   UNL     1     -34.643 -10.944  12.944  0.00  0.00    +0.033 A 
ATOM     20  C   UNL     1     -33.630 -11.689  13.572  0.00  0.00    +0.127 A 
ATOM     21  C   UNL     1     -33.049 -11.189  14.753  0.00  0.00    +0.038 A 
BRANCH  20  22
ATOM     22  N   UNL     1     -33.197 -12.943  13.014  0.00  0.00    +0.056 N 
ATOM     23  O   UNL     1     -32.047 -13.549  13.466  0.00  0.00    -0.126 OA
ATOM     24  O   UNL     1     -33.853 -13.500  12.109  0.00  0.00    -0.126 OA
ENDBRANCH  20  22
ENDBRANCH  15  16
ENDBRANCH  11  15
TORSDOF 4
ENDMDL
MODEL 2
REMARK VINA RESULT:    -4.434      1.607      2.331
REMARK INTER + INTRA:          -5.802
REMARK INTER:                  -5.799
REMARK INTRA:                  -0.003
REMARK UNBOUND:                -0.331
REMARK  Name = 
REMARK  4 active torsions:
REMARK  status: ('A' for Active; 'I' for Inactive)
REMARK    1  A    between atoms: C_2  and  C_3
REMARK    2  A    between atoms: N_13  and  C_14
REMARK    3  A    between atoms: C_14  and  C_15
REMARK    4  A    between atoms: C_19  and  N_21
REMARK                            x       y       z     vdW  Elec       q    Type
REMARK                         _______ _______ _______ _____ _____    ______ ____
ROOT
ATOM      1  C   UNL     1     -28.305 -13.352  20.200  0.00  0.00    +0.052 A 
ATOM      2  C   UNL     1     -27.517 -12.435  19.492  0.00  0.00    +0.021 A 
ATOM      3  C   UNL     1     -28.086 -11.645  18.488  0.00  0.00    +0.029 A 
ATOM      4  C   UNL     1     -29.446 -11.767  18.186  0.00  0.00    +0.073 A 
ATOM      5  N   UNL     1     -30.002 -11.002  17.209  0.00  0.00    -0.232 NA
ATOM      6  C   UNL     1     -31.320 -11.088  16.878  0.00  0.00    +0.120 A 
ATOM      7  C   UNL     1     -32.145 -11.991  17.572  0.00  0.00    +0.044 A 
ATOM      8  C   UNL     1     -31.603 -12.792  18.579  0.00  0.00    +0.013 A 
ATOM      9  C   UNL     1     -30.244 -12.689  18.897  0.00  0.00    +0.002 A 
ATOM     10  C   UNL     1     -29.669 -13.479  19.904  0.00  0.00    +0.029 A 
ATOM     11  N   UNL     1     -31.825 -10.243  15.829  0.00  0.00    -0.325 N 
ATOM     12  H   UNL     1     -31.178  -9.531  15.422  0.00  0.00    +0.148 HD
ENDROOT
BRANCH   1  14
ATOM     13  N   UNL     1     -27.239 -14.813  22.062  0.00  0.00    -0.191 NA
ATOM     14  C   UNL     1     -27.714 -14.162  21.233  0.00  0.00    +0.099 C 
ENDBRANCH   1  14
BRANCH  11  15
ATOM     15  C   UNL     1     -33.166 -10.348  15.250  0.00  0.00    +0.138 C 
BRANCH  15  16
ATOM     16  C   UNL     1     -33.173 -11.316  14.096  0.00  0.00    -0.028 A 
ATOM     17  C   UNL     1     -34.264 -11.365  13.214  0.00  0.00    +0.005 A 
ATOM     18  C   UNL     1     -34.263 -12.261  12.144  0.00  0.00    +0.003 A 
ATOM     19  C   UNL     1     -33.172 -13.109  11.938  0.00  0.00    +0.033 A 
ATOM     20  C   UNL     1     -32.064 -13.067  12.800  0.00  0.00    +0.127 A 
ATOM     21  C   UNL     1     -32.072 -12.161  13.878  0.00  0.00    +0.038 A 
BRANCH  20  22
ATOM     22  N   UNL     1     -30.939 -13.939  12.583  0.00  0.00    +0.056 N 
ATOM     23  O   UNL     1     -29.680 -13.572  12.998  0.00  0.00    -0.126 OA
ATOM     24  O   UNL     1     -31.086 -15.040  12.012  0.00  0.00    -0.126 OA
ENDBRANCH  20  22
ENDBRANCH  15  16
ENDBRANCH  11  15
TORSDOF 4
ENDMDL
MODEL 3
REMARK VINA RESULT:    -4.269      4.537      6.163
REMARK INTER + INTRA:          -5.597
REMARK INTER:                  -5.310
REMARK INTRA:                  -0.287
REMARK UNBOUND:                -0.331
REMARK  Name = 
REMARK  4 active torsions:
REMARK  status: ('A' for Active; 'I' for Inactive)
REMARK    1  A    between atoms: C_2  and  C_3
REMARK    2  A    between atoms: N_13  and  C_14
REMARK    3  A    between atoms: C_14  and  C_15
REMARK    4  A    between atoms: C_19  and  N_21
REMARK                            x       y       z     vdW  Elec       q    Type
REMARK                         _______ _______ _______ _____ _____    ______ ____
ROOT
ATOM      1  C   UNL     1     -29.578 -14.170  13.827  0.00  0.00    +0.052 A 
ATOM      2  C   UNL     1     -29.486 -14.707  15.118  0.00  0.00    +0.021 A 
ATOM      3  C   UNL     1     -30.314 -14.231  16.140  0.00  0.00    +0.029 A 
ATOM      4  C   UNL     1     -31.237 -13.214  15.877  0.00  0.00    +0.073 A 
ATOM      5  N   UNL     1     -32.041 -12.747  16.869  0.00  0.00    -0.232 NA
ATOM      6  C   UNL     1     -32.954 -11.757  16.662  0.00  0.00    +0.120 A 
ATOM      7  C   UNL     1     -33.081 -11.198  15.378  0.00  0.00    +0.044 A 
ATOM      8  C   UNL     1     -32.267 -11.655  14.339  0.00  0.00    +0.013 A 
ATOM      9  C   UNL     1     -31.334 -12.670  14.578  0.00  0.00    +0.002 A 
ATOM     10  C   UNL     1     -30.502 -13.152  13.556  0.00  0.00    +0.029 A 
ATOM     11  N   UNL     1     -33.763 -11.321  17.768  0.00  0.00    -0.325 N 
ATOM     12  H   UNL     1     -33.681 -11.844  18.669  0.00  0.00    +0.148 HD
ENDROOT
BRANCH   1  14
ATOM     13  N   UNL     1     -28.038 -15.062  11.938  0.00  0.00    -0.191 NA
ATOM     14  C   UNL     1     -28.724 -14.665  12.779  0.00  0.00    +0.099 C 
ENDBRANCH   1  14
BRANCH  11  15
ATOM     15  C   UNL     1     -34.652 -10.158  17.740  0.00  0.00    +0.138 C 
BRANCH  15  16
ATOM     16  C   UNL     1     -34.001  -8.974  18.404  0.00  0.00    -0.028 A 
ATOM     17  C   UNL     1     -34.714  -7.779  18.590  0.00  0.00    +0.005 A 
ATOM     18  C   UNL     1     -34.107  -6.687  19.210  0.00  0.00    +0.003 A 
ATOM     19  C   UNL     1     -32.789  -6.776  19.660  0.00  0.00    +0.033 A 
ATOM     20  C   UNL     1     -32.059  -7.966  19.497  0.00  0.00    +0.127 A 
ATOM     21  C   UNL     1     -32.678  -9.065  18.869  0.00  0.00    +0.038 A 
BRANCH  20  22
ATOM     22  N   UNL     1     -30.701  -8.058  19.965  0.00  0.00    +0.056 N 
ATOM     23  O   UNL     1     -30.011  -9.245  19.880  0.00  0.00    -0.126 OA
ATOM     24  O   UNL     1     -30.128  -7.064  20.459  0.00  0.00    -0.126 OA
ENDBRANCH  20  22
ENDBRANCH  15  16
ENDBRANCH  11  15
TORSDOF 4
ENDMDL
MODEL 4
REMARK VINA RESULT:    -4.236      3.108      3.695
REMARK INTER + INTRA:          -5.557
REMARK INTER:                  -5.171
REMARK INTRA:                  -0.386
REMARK UNBOUND:                -0.331
REMARK  Name = 
REMARK  4 active torsions:
REMARK  status: ('A' for Active; 'I' for Inactive)
REMARK    1  A    between atoms: C_2  and  C_3
REMARK    2  A    between atoms: N_13  and  C_14
REMARK    3  A    between atoms: C_14  and  C_15
REMARK    4  A    between atoms: C_19  and  N_21
REMARK                            x       y       z     vdW  Elec       q    Type
REMARK                         _______ _______ _______ _____ _____    ______ ____
ROOT
ATOM      1  C   UNL     1     -27.415 -13.373  20.234  0.00  0.00    +0.052 A 
ATOM      2  C   UNL     1     -28.424 -13.371  21.207  0.00  0.00    +0.021 A 
ATOM      3  C   UNL     1     -29.761 -13.196  20.834  0.00  0.00    +0.029 A 
ATOM      4  C   UNL     1     -30.096 -13.019  19.488  0.00  0.00    +0.073 A 
ATOM      5  N   UNL     1     -31.395 -12.846  19.124  0.00  0.00    -0.232 NA
ATOM      6  C   UNL     1     -31.769 -12.668  17.827  0.00  0.00    +0.120 A 
ATOM      7  C   UNL     1     -30.786 -12.670  16.821  0.00  0.00    +0.044 A 
ATOM      8  C   UNL     1     -29.444 -12.844  17.164  0.00  0.00    +0.013 A 
ATOM      9  C   UNL     1     -29.084 -13.020  18.505  0.00  0.00    +0.002 A 
ATOM     10  C   UNL     1     -27.744 -13.197  18.883  0.00  0.00    +0.029 A 
ATOM     11  N   UNL     1     -33.165 -12.488  17.529  0.00  0.00    -0.325 N 
ATOM     12  H   UNL     1     -33.848 -12.591  18.313  0.00  0.00    +0.148 HD
ENDROOT
BRANCH   1  14
ATOM     13  N   UNL     1     -24.938 -13.701  20.936  0.00  0.00    -0.191 NA
ATOM     14  C   UNL     1     -26.041 -13.555  20.623  0.00  0.00    +0.099 C 
ENDBRANCH   1  14
BRANCH  11  15
ATOM     15  C   UNL     1     -33.695 -12.115  16.217  0.00  0.00    +0.138 C 
BRANCH  15  16
ATOM     16  C   UNL     1     -34.066 -10.655  16.188  0.00  0.00    -0.028 A 
ATOM     17  C   UNL     1     -34.336 -10.012  14.970  0.00  0.00    +0.005 A 
ATOM     18  C   UNL     1     -34.685  -8.661  14.950  0.00  0.00    +0.003 A 
ATOM     19  C   UNL     1     -34.777  -7.941  16.143  0.00  0.00    +0.033 A 
ATOM     20  C   UNL     1     -34.523  -8.567  17.375  0.00  0.00    +0.127 A 
ATOM     21  C   UNL     1     -34.171  -9.931  17.387  0.00  0.00    +0.038 A 
BRANCH  20  22
ATOM     22  N   UNL     1     -34.623  -7.824  18.603  0.00  0.00    +0.056 N 
ATOM     23  O   UNL     1     -34.380  -8.435  19.812  0.00  0.00    -0.126 OA
ATOM     24  O   UNL     1     -34.933  -6.614  18.594  0.00  0.00    -0.126 OA
ENDBRANCH  20  22
ENDBRANCH  15  16
ENDBRANCH  11  15
TORSDOF 4
ENDMDL
MODEL 5
REMARK VINA RESULT:    -3.835      3.455      5.307
REMARK INTER + INTRA:          -5.063
REMARK INTER:                  -4.655
REMARK INTRA:                  -0.408
REMARK UNBOUND:                -0.331
REMARK  Name = 
REMARK  4 active torsions:
REMARK  status: ('A' for Active; 'I' for Inactive)
REMARK    1  A    between atoms: C_2  and  C_3
REMARK    2  A    between atoms: N_13  and  C_14
REMARK    3  A    between atoms: C_14  and  C_15
REMARK    4  A    between atoms: C_19  and  N_21
REMARK                            x       y       z     vdW  Elec       q    Type
REMARK                         _______ _______ _______ _____ _____    ______ ____
ROOT
ATOM      1  C   UNL     1     -31.577  -7.538  20.280  0.00  0.00    +0.052 A 
ATOM      2  C   UNL     1     -32.810  -7.774  19.657  0.00  0.00    +0.021 A 
ATOM      3  C   UNL     1     -33.034  -8.973  18.972  0.00  0.00    +0.029 A 
ATOM      4  C   UNL     1     -32.027  -9.942  18.907  0.00  0.00    +0.073 A 
ATOM      5  N   UNL     1     -32.242 -11.107  18.241  0.00  0.00    -0.232 NA
ATOM      6  C   UNL     1     -31.292 -12.079  18.148  0.00  0.00    +0.120 A 
ATOM      7  C   UNL     1     -30.045 -11.882  18.768  0.00  0.00    +0.044 A 
ATOM      8  C   UNL     1     -29.794 -10.694  19.458  0.00  0.00    +0.013 A 
ATOM      9  C   UNL     1     -30.785  -9.709  19.535  0.00  0.00    +0.002 A 
ATOM     10  C   UNL     1     -30.565  -8.505  20.220  0.00  0.00    +0.029 A 
ATOM     11  N   UNL     1     -31.601 -13.281  17.421  0.00  0.00    -0.325 N 
ATOM     12  H   UNL     1     -32.577 -13.399  17.067  0.00  0.00    +0.148 HD
ENDROOT
BRANCH   1  14
ATOM     13  N   UNL     1     -31.172  -5.309  21.549  0.00  0.00    -0.191 NA
ATOM     14  C   UNL     1     -31.352  -6.302  20.984  0.00  0.00    +0.099 C 
ENDBRANCH   1  14
BRANCH  11  15
ATOM     15  C   UNL     1     -30.631 -14.326  17.090  0.00  0.00    +0.138 C 
BRANCH  15  16
ATOM     16  C   UNL     1     -30.329 -14.324  15.615  0.00  0.00    -0.028 A 
ATOM     17  C   UNL     1     -29.135 -14.882  15.131  0.00  0.00    +0.005 A 
ATOM     18  C   UNL     1     -28.863 -14.882  13.762  0.00  0.00    +0.003 A 
ATOM     19  C   UNL     1     -29.780 -14.336  12.863  0.00  0.00    +0.033 A 
ATOM     20  C   UNL     1     -30.988 -13.784  13.323  0.00  0.00    +0.127 A 
ATOM     21  C   UNL     1     -31.255 -13.787  14.706  0.00  0.00    +0.038 A 
BRANCH  20  22
ATOM     22  N   UNL     1     -31.934 -13.225  12.393  0.00  0.00    +0.056 N 
ATOM     23  O   UNL     1     -33.028 -13.954  11.987  0.00  0.00    -0.126 OA
ATOM     24  O   UNL     1     -31.777 -12.073  11.938  0.00  0.00    -0.126 OA
ENDBRANCH  20  22
ENDBRANCH  15  16
ENDBRANCH  11  15
TORSDOF 4
ENDMDL
MODEL 6
REMARK VINA RESULT:    -3.759      4.897      7.040
REMARK INTER + INTRA:          -4.969
REMARK INTER:                  -4.525
REMARK INTRA:                  -0.444
REMARK UNBOUND:                -0.331
REMARK  Name = 
REMARK  4 active torsions:
REMARK  status: ('A' for Active; 'I' for Inactive)
REMARK    1  A    between atoms: C_2  and  C_3
REMARK    2  A    between atoms: N_13  and  C_14
REMARK    3  A    between atoms: C_14  and  C_15
REMARK    4  A    between atoms: C_19  and  N_21
REMARK                            x       y       z     vdW  Elec       q    Type
REMARK                         _______ _______ _______ _____ _____    ______ ____
ROOT
ATOM      1  C   UNL     1     -30.806 -13.526  13.321  0.00  0.00    +0.052 A 
ATOM      2  C   UNL     1     -31.902 -12.913  12.700  0.00  0.00    +0.021 A 
ATOM      3  C   UNL     1     -32.756 -12.085  13.436  0.00  0.00    +0.029 A 
ATOM      4  C   UNL     1     -32.518 -11.864  14.796  0.00  0.00    +0.073 A 
ATOM      5  N   UNL     1     -33.347 -11.061  15.514  0.00  0.00    -0.232 NA
ATOM      6  C   UNL     1     -33.158 -10.819  16.841  0.00  0.00    +0.120 A 
ATOM      7  C   UNL     1     -32.064 -11.410  17.498  0.00  0.00    +0.044 A 
ATOM      8  C   UNL     1     -31.195 -12.241  16.788  0.00  0.00    +0.013 A 
ATOM      9  C   UNL     1     -31.414 -12.479  15.426  0.00  0.00    +0.002 A 
ATOM     10  C   UNL     1     -30.561 -13.309  14.684  0.00  0.00    +0.029 A 
ATOM     11  N   UNL     1     -34.085  -9.959  17.526  0.00  0.00    -0.325 N 
ATOM     12  H   UNL     1     -34.819  -9.480  16.956  0.00  0.00    +0.148 HD
ENDROOT
BRANCH   1  14
ATOM     13  N   UNL     1     -29.227 -15.061  11.946  0.00  0.00    -0.191 NA
ATOM     14  C   UNL     1     -29.930 -14.377  12.558  0.00  0.00    +0.099 C 
ENDBRANCH   1  14
BRANCH  11  15
ATOM     15  C   UNL     1     -34.112  -9.749  18.974  0.00  0.00    +0.138 C 
BRANCH  15  16
ATOM     16  C   UNL     1     -33.527  -8.407  19.329  0.00  0.00    -0.028 A 
ATOM     17  C   UNL     1     -34.221  -7.225  19.027  0.00  0.00    +0.005 A 
ATOM     18  C   UNL     1     -33.676  -5.985  19.362  0.00  0.00    +0.003 A 
ATOM     19  C   UNL     1     -32.442  -5.910  20.009  0.00  0.00    +0.033 A 
ATOM     20  C   UNL     1     -31.735  -7.081  20.334  0.00  0.00    +0.127 A 
ATOM     21  C   UNL     1     -32.291  -8.329  19.992  0.00  0.00    +0.038 A 
BRANCH  20  22
ATOM     22  N   UNL     1     -30.465  -7.002  21.005  0.00  0.00    +0.056 N 
ATOM     23  O   UNL     1     -29.546  -6.040  20.653  0.00  0.00    -0.126 OA
ATOM     24  O   UNL     1     -30.173  -7.806  21.915  0.00  0.00    -0.126 OA
ENDBRANCH  20  22
ENDBRANCH  15  16
ENDBRANCH  11  15
TORSDOF 4
ENDMDL
MODEL 7
REMARK VINA RESULT:    -3.610      4.421      6.329
REMARK INTER + INTRA:          -4.784
REMARK INTER:                  -4.496
REMARK INTRA:                  -0.288
REMARK UNBOUND:                -0.331
REMARK  Name = 
REMARK  4 active torsions:
REMARK  status: ('A' for Active; 'I' for Inactive)
REMARK    1  A    between atoms: C_2  and  C_3
REMARK    2  A    between atoms: N_13  and  C_14
REMARK    3  A    between atoms: C_14  and  C_15
REMARK    4  A    between atoms: C_19  and  N_21
REMARK                            x       y       z     vdW  Elec       q    Type
REMARK                         _______ _______ _______ _____ _____    ______ ____
ROOT
ATOM      1  C   UNL     1     -33.917  -6.775  20.249  0.00  0.00    +0.052 A 
ATOM      2  C   UNL     1     -32.595  -7.217  20.398  0.00  0.00    +0.021 A 
ATOM      3  C   UNL     1     -32.022  -8.059  19.440  0.00  0.00    +0.029 A 
ATOM      4  C   UNL     1     -32.767  -8.464  18.327  0.00  0.00    +0.073 A 
ATOM      5  N   UNL     1     -32.213  -9.284  17.395  0.00  0.00    -0.232 NA
ATOM      6  C   UNL     1     -32.899  -9.707  16.297  0.00  0.00    +0.120 A 
ATOM      7  C   UNL     1     -34.225  -9.279  16.109  0.00  0.00    +0.044 A 
ATOM      8  C   UNL     1     -34.823  -8.438  17.050  0.00  0.00    +0.013 A 
ATOM      9  C   UNL     1     -34.098  -8.021  18.173  0.00  0.00    +0.002 A 
ATOM     10  C   UNL     1     -34.668  -7.176  19.137  0.00  0.00    +0.029 A 
ATOM     11  N   UNL     1     -32.238 -10.577  15.362  0.00  0.00    -0.325 N 
ATOM     12  H   UNL     1     -31.224 -10.779  15.516  0.00  0.00    +0.148 HD
ENDROOT
BRANCH   1  14
ATOM     13  N   UNL     1     -34.970  -5.211  22.034  0.00  0.00    -0.191 NA
ATOM     14  C   UNL     1     -34.501  -5.908  21.239  0.00  0.00    +0.099 C 
ENDBRANCH   1  14
BRANCH  11  15
ATOM     15  C   UNL     1     -32.897 -11.247  14.240  0.00  0.00    +0.138 C 
BRANCH  15  16
ATOM     16  C   UNL     1     -32.064 -12.400  13.744  0.00  0.00    -0.028 A 
ATOM     17  C   UNL     1     -32.231 -12.891  12.440  0.00  0.00    +0.005 A 
ATOM     18  C   UNL     1     -31.452 -13.956  11.984  0.00  0.00    +0.003 A 
ATOM     19  C   UNL     1     -30.494 -14.534  12.819  0.00  0.00    +0.033 A 
ATOM     20  C   UNL     1     -30.300 -14.050  14.124  0.00  0.00    +0.127 A 
ATOM     21  C   UNL     1     -31.090 -12.976  14.577  0.00  0.00    +0.038 A 
BRANCH  20  22
ATOM     22  N   UNL     1     -29.309 -14.645  14.981  0.00  0.00    +0.056 N 
ATOM     23  O   UNL     1     -28.005 -14.769  14.561  0.00  0.00    -0.126 OA
ATOM     24  O   UNL     1     -29.615 -15.062  16.118  0.00  0.00    -0.126 OA
ENDBRANCH  20  22
ENDBRANCH  15  16
ENDBRANCH  11  15
TORSDOF 4
ENDMDL
