MODEL 1
REMARK VINA RESULT:    -3.720      0.000      0.000
REMARK INTER + INTRA:          -5.262
REMARK INTER:                  -4.590
REMARK INTRA:                  -0.671
REMARK UNBOUND:                -0.671
REMARK  Name = 
REMARK  6 active torsions:
REMARK  status: ('A' for Active; 'I' for Inactive)
REMARK    1  A    between atoms: C_1  and  C_2
REMARK    2  A    between atoms: C_2  and  C_3
REMARK    3  A    between atoms: C_3  and  C_4
REMARK    4  A    between atoms: C_3  and  N_6
REMARK    5  A    between atoms: C_4  and  C_5
REMARK    6  A    between atoms: C_10  and  N_14
REMARK                            x       y       z     vdW  Elec       q    Type
REMARK                         _______ _______ _______ _____ _____    ______ ____
ROOT
ATOM      1  N   UNL     1     -31.233 -13.067  20.231  0.00  0.00    -0.311 N 
ATOM      2  C   UNL     1     -29.800 -13.087  20.201  0.00  0.00    +0.217 A 
ATOM      3  N   UNL     1     -29.112 -12.266  19.365  0.00  0.00    -0.221 NA
ATOM      4  C   UNL     1     -27.756 -12.278  19.329  0.00  0.00    +0.150 A 
ATOM      5  C   UNL     1     -27.033 -13.134  20.170  0.00  0.00    +0.184 A 
ATOM      6  C   UNL     1     -27.764 -14.000  21.012  0.00  0.00    +0.152 A 
ATOM      7  N   UNL     1     -27.120 -14.979  21.833  0.00  0.00    -0.341 N 
ATOM      8  N   UNL     1     -29.123 -13.945  21.008  0.00  0.00    -0.198 NA
ATOM      9  H   UNL     1     -31.717 -13.702  20.906  0.00  0.00    +0.149 HD
ATOM     10  H   UNL     1     -27.687 -15.549  22.500  0.00  0.00    +0.144 HD
ATOM     11  H   UNL     1     -26.118 -15.237  21.709  0.00  0.00    +0.144 HD
ENDROOT
BRANCH   5  12
ATOM     12  N   UNL     1     -25.597 -13.088  20.169  0.00  0.00    +0.061 N 
ATOM     13  O   UNL     1     -24.938 -12.270  19.280  0.00  0.00    -0.126 OA
ATOM     14  O   UNL     1     -24.948 -13.611  21.100  0.00  0.00    -0.126 OA
ENDBRANCH   5  12
BRANCH   1  15
ATOM     15  C   UNL     1     -32.025 -12.169  19.381  0.00  0.00    +0.073 C 
BRANCH  15  17
ATOM     16  C   UNL     1     -31.887 -12.301  16.828  0.00  0.00    +0.006 C 
ATOM     17  C   UNL     1     -32.470 -12.922  18.098  0.00  0.00    +0.019 C 
ENDBRANCH  15  17
BRANCH  15  18
ATOM     18  C   UNL     1     -33.228 -11.628  20.189  0.00  0.00    +0.019 C 
ATOM     19  C   UNL     1     -32.943 -10.289  20.867  0.00  0.00    +0.006 C 
ENDBRANCH  15  18
ENDBRANCH   1  15
TORSDOF 4
ENDMDL
MODEL 2
REMARK VINA RESULT:    -3.607      2.093      2.455
REMARK INTER + INTRA:          -5.122
REMARK INTER:                  -4.492
REMARK INTRA:                  -0.629
REMARK UNBOUND:                -0.671
REMARK  Name = 
REMARK  6 active torsions:
REMARK  status: ('A' for Active; 'I' for Inactive)
REMARK    1  A    between atoms: C_1  and  C_2
REMARK    2  A    between atoms: C_2  and  C_3
REMARK    3  A    between atoms: C_3  and  C_4
REMARK    4  A    between atoms: C_3  and  N_6
REMARK    5  A    between atoms: C_4  and  C_5
REMARK    6  A    between atoms: C_10  and  N_14
REMARK                            x       y       z     vdW  Elec       q    Type
REMARK                         _______ _______ _______ _____ _____    ______ ____
ROOT
ATOM      1  N   UNL     1     -30.666 -11.812  17.816  0.00  0.00    -0.311 N 
ATOM      2  C   UNL     1     -29.477 -12.209  18.512  0.00  0.00    +0.217 A 
ATOM      3  N   UNL     1     -28.257 -11.772  18.105  0.00  0.00    -0.221 NA
ATOM      4  C   UNL     1     -27.126 -12.142  18.757  0.00  0.00    +0.150 A 
ATOM      5  C   UNL     1     -27.197 -12.978  19.879  0.00  0.00    +0.184 A 
ATOM      6  C   UNL     1     -28.470 -13.444  20.272  0.00  0.00    +0.152 A 
ATOM      7  N   UNL     1     -28.637 -14.380  21.342  0.00  0.00    -0.341 N 
ATOM      8  N   UNL     1     -29.571 -13.040  19.582  0.00  0.00    -0.198 NA
ATOM      9  H   UNL     1     -31.584 -12.157  18.179  0.00  0.00    +0.149 HD
ATOM     10  H   UNL     1     -29.598 -14.642  21.654  0.00  0.00    +0.144 HD
ATOM     11  H   UNL     1     -27.836 -14.908  21.749  0.00  0.00    +0.144 HD
ENDROOT
BRANCH   5  12
ATOM     12  N   UNL     1     -25.998 -13.307  20.600  0.00  0.00    +0.061 N 
ATOM     13  O   UNL     1     -26.062 -13.590  21.945  0.00  0.00    -0.126 OA
ATOM     14  O   UNL     1     -24.938 -13.547  19.984  0.00  0.00    -0.126 OA
ENDBRANCH   5  12
BRANCH   1  15
ATOM     15  C   UNL     1     -30.634 -10.921  16.649  0.00  0.00    +0.073 C 
BRANCH  15  17
ATOM     16  C   UNL     1     -30.827 -12.926  15.070  0.00  0.00    +0.006 C 
ATOM     17  C   UNL     1     -31.412 -11.573  15.473  0.00  0.00    +0.019 C 
ENDBRANCH  15  17
BRANCH  15  18
ATOM     18  C   UNL     1     -31.215  -9.542  17.042  0.00  0.00    +0.019 C 
ATOM     19  C   UNL     1     -32.678  -9.370  16.639  0.00  0.00    +0.006 C 
ENDBRANCH  15  18
ENDBRANCH   1  15
TORSDOF 4
ENDMDL
MODEL 3
REMARK VINA RESULT:    -3.599      3.598      4.764
REMARK INTER + INTRA:          -5.112
REMARK INTER:                  -4.449
REMARK INTRA:                  -0.662
REMARK UNBOUND:                -0.671
REMARK  Name = 
REMARK  6 active torsions:
REMARK  status: ('A' for Active; 'I' for Inactive)
REMARK    1  A    between atoms: C_1  and  C_2
REMARK    2  A    between atoms: C_2  and  C_3
REMARK    3  A    between atoms: C_3  and  C_4
REMARK    4  A    between atoms: C_3  and  N_6
REMARK    5  A    between atoms: C_4  and  C_5
REMARK    6  A    between atoms: C_10  and  N_14
REMARK                            x       y       z     vdW  Elec       q    Type
REMARK                         _______ _______ _______ _____ _____    ______ ____
ROOT
ATOM      1  N   UNL     1     -28.994 -14.248  16.681  0.00  0.00    -0.311 N 
ATOM      2  C   UNL     1     -29.157 -13.142  17.579  0.00  0.00    +0.217 A 
ATOM      3  N   UNL     1     -29.617 -11.945  17.130  0.00  0.00    -0.221 NA
ATOM      4  C   UNL     1     -29.775 -10.893  17.971  0.00  0.00    +0.150 A 
ATOM      5  C   UNL     1     -29.476 -11.025  19.334  0.00  0.00    +0.184 A 
ATOM      6  C   UNL     1     -28.973 -12.268  19.779  0.00  0.00    +0.152 A 
ATOM      7  N   UNL     1     -28.546 -12.472  21.129  0.00  0.00    -0.341 N 
ATOM      8  N   UNL     1     -28.837 -13.289  18.891  0.00  0.00    -0.198 NA
ATOM      9  H   UNL     1     -28.658 -15.155  17.078  0.00  0.00    +0.149 HD
ATOM     10  H   UNL     1     -28.253 -13.424  21.440  0.00  0.00    +0.144 HD
ATOM     11  H   UNL     1     -28.398 -11.680  21.790  0.00  0.00    +0.144 HD
ENDROOT
BRANCH   5  12
ATOM     12  N   UNL     1     -29.711  -9.923  20.225  0.00  0.00    +0.061 N 
ATOM     13  O   UNL     1     -29.945  -8.667  19.715  0.00  0.00    -0.126 OA
ATOM     14  O   UNL     1     -29.919 -10.128  21.439  0.00  0.00    -0.126 OA
ENDBRANCH   5  12
BRANCH   1  15
ATOM     15  C   UNL     1     -29.317 -14.155  15.251  0.00  0.00    +0.073 C 
BRANCH  15  17
ATOM     16  C   UNL     1     -28.224 -14.615  12.983  0.00  0.00    +0.006 C 
ATOM     17  C   UNL     1     -28.353 -15.062  14.439  0.00  0.00    +0.019 C 
ENDBRANCH  15  17
BRANCH  15  18
ATOM     18  C   UNL     1     -30.800 -14.534  15.034  0.00  0.00    +0.019 C 
ATOM     19  C   UNL     1     -31.627 -13.402  14.427  0.00  0.00    +0.006 C 
ENDBRANCH  15  18
ENDBRANCH   1  15
TORSDOF 4
ENDMDL
MODEL 4
REMARK VINA RESULT:    -3.484      3.413      4.688
REMARK INTER + INTRA:          -4.970
REMARK INTER:                  -4.352
REMARK INTRA:                  -0.619
REMARK UNBOUND:                -0.671
REMARK  Name = 
REMARK  6 active torsions:
REMARK  status: ('A' for Active; 'I' for Inactive)
REMARK    1  A    between atoms: C_1  and  C_2
REMARK    2  A    between atoms: C_2  and  C_3
REMARK    3  A    between atoms: C_3  and  C_4
REMARK    4  A    between atoms: C_3  and  N_6
REMARK    5  A    between atoms: C_4  and  C_5
REMARK    6  A    between atoms: C_10  and  N_14
REMARK                            x       y       z     vdW  Elec       q    Type
REMARK                         _______ _______ _______ _____ _____    ______ ____
ROOT
ATOM      1  N   UNL     1     -31.806 -12.874  14.865  0.00  0.00    -0.311 N 
ATOM      2  C   UNL     1     -31.008 -12.436  15.973  0.00  0.00    +0.217 A 
ATOM      3  N   UNL     1     -30.789 -11.113  16.190  0.00  0.00    -0.221 NA
ATOM      4  C   UNL     1     -30.036 -10.688  17.235  0.00  0.00    +0.150 A 
ATOM      5  C   UNL     1     -29.475 -11.614  18.125  0.00  0.00    +0.184 A 
ATOM      6  C   UNL     1     -29.690 -12.986  17.869  0.00  0.00    +0.152 A 
ATOM      7  N   UNL     1     -29.078 -14.008  18.661  0.00  0.00    -0.341 N 
ATOM      8  N   UNL     1     -30.455 -13.354  16.807  0.00  0.00    -0.198 NA
ATOM      9  H   UNL     1     -31.964 -13.901  14.752  0.00  0.00    +0.149 HD
ATOM     10  H   UNL     1     -29.321 -15.009  18.490  0.00  0.00    +0.144 HD
ATOM     11  H   UNL     1     -28.302 -13.806  19.327  0.00  0.00    +0.144 HD
ENDROOT
BRANCH   5  12
ATOM     12  N   UNL     1     -28.735 -11.147  19.265  0.00  0.00    +0.061 N 
ATOM     13  O   UNL     1     -29.356 -10.366  20.212  0.00  0.00    -0.126 OA
ATOM     14  O   UNL     1     -27.605 -11.615  19.518  0.00  0.00    -0.126 OA
ENDBRANCH   5  12
BRANCH   1  15
ATOM     15  C   UNL     1     -32.428 -11.934  13.923  0.00  0.00    +0.073 C 
BRANCH  15  17
ATOM     16  C   UNL     1     -33.811 -12.770  11.938  0.00  0.00    +0.006 C 
ATOM     17  C   UNL     1     -32.405 -12.538  12.492  0.00  0.00    +0.019 C 
ENDBRANCH  15  17
BRANCH  15  18
ATOM     18  C   UNL     1     -33.863 -11.607  14.398  0.00  0.00    +0.019 C 
ATOM     19  C   UNL     1     -34.073 -10.124  14.698  0.00  0.00    +0.006 C 
ENDBRANCH  15  18
ENDBRANCH   1  15
TORSDOF 4
ENDMDL
MODEL 5
REMARK VINA RESULT:    -3.476      3.603      5.094
REMARK INTER + INTRA:          -4.960
REMARK INTER:                  -4.310
REMARK INTRA:                  -0.651
REMARK UNBOUND:                -0.671
REMARK  Name = 
REMARK  6 active torsions:
REMARK  status: ('A' for Active; 'I' for Inactive)
REMARK    1  A    between atoms: C_1  and  C_2
REMARK    2  A    between atoms: C_2  and  C_3
REMARK    3  A    between atoms: C_3  and  C_4
REMARK    4  A    between atoms: C_3  and  N_6
REMARK    5  A    between atoms: C_4  and  C_5
REMARK    6  A    between atoms: C_10  and  N_14
REMARK                            x       y       z     vdW  Elec       q    Type
REMARK                         _______ _______ _______ _____ _____    ______ ____
ROOT
ATOM      1  N   UNL     1     -31.071 -14.088  15.365  0.00  0.00    -0.311 N 
ATOM      2  C   UNL     1     -30.682 -13.380  16.549  0.00  0.00    +0.217 A 
ATOM      3  N   UNL     1     -30.064 -12.173  16.464  0.00  0.00    -0.221 NA
ATOM      4  C   UNL     1     -29.692 -11.495  17.579  0.00  0.00    +0.150 A 
ATOM      5  C   UNL     1     -29.950 -12.026  18.850  0.00  0.00    +0.184 A 
ATOM      6  C   UNL     1     -30.568 -13.294  18.919  0.00  0.00    +0.152 A 
ATOM      7  N   UNL     1     -30.783 -13.965  20.165  0.00  0.00    -0.341 N 
ATOM      8  N   UNL     1     -30.921 -13.928  17.768  0.00  0.00    -0.198 NA
ATOM      9  H   UNL     1     -31.562 -15.004  15.481  0.00  0.00    +0.149 HD
ATOM     10  H   UNL     1     -31.311 -14.865  20.183  0.00  0.00    +0.144 HD
ATOM     11  H   UNL     1     -30.328 -13.653  21.049  0.00  0.00    +0.144 HD
ENDROOT
BRANCH   5  12
ATOM     12  N   UNL     1     -29.611 -11.267  20.021  0.00  0.00    +0.061 N 
ATOM     13  O   UNL     1     -29.759  -9.900  20.019  0.00  0.00    -0.126 OA
ATOM     14  O   UNL     1     -29.388 -11.846  21.105  0.00  0.00    -0.126 OA
ENDBRANCH   5  12
BRANCH   1  15
ATOM     15  C   UNL     1     -30.837 -13.555  14.016  0.00  0.00    +0.073 C 
BRANCH  15  17
ATOM     16  C   UNL     1     -28.669 -14.530  13.066  0.00  0.00    +0.006 C 
ATOM     17  C   UNL     1     -30.192 -14.652  13.126  0.00  0.00    +0.019 C 
ENDBRANCH  15  17
BRANCH  15  18
ATOM     18  C   UNL     1     -32.171 -13.036  13.431  0.00  0.00    +0.019 C 
ATOM     19  C   UNL     1     -32.371 -13.414  11.964  0.00  0.00    +0.006 C 
ENDBRANCH  15  18
ENDBRANCH   1  15
TORSDOF 4
ENDMDL
MODEL 6
REMARK VINA RESULT:    -3.463      3.512      5.099
REMARK INTER + INTRA:          -4.944
REMARK INTER:                  -4.381
REMARK INTRA:                  -0.563
REMARK UNBOUND:                -0.671
REMARK  Name = 
REMARK  6 active torsions:
REMARK  status: ('A' for Active; 'I' for Inactive)
REMARK    1  A    between atoms: C_1  and  C_2
REMARK    2  A    between atoms: C_2  and  C_3
REMARK    3  A    between atoms: C_3  and  C_4
REMARK    4  A    between atoms: C_3  and  N_6
REMARK    5  A    between atoms: C_4  and  C_5
REMARK    6  A    between atoms: C_10  and  N_14
REMARK                            x       y       z     vdW  Elec       q    Type
REMARK                         _______ _______ _______ _____ _____    ______ ____
ROOT
ATOM      1  N   UNL     1     -29.227 -13.889  15.304  0.00  0.00    -0.311 N 
ATOM      2  C   UNL     1     -29.351 -13.638  16.710  0.00  0.00    +0.217 A 
ATOM      3  N   UNL     1     -30.537 -13.823  17.346  0.00  0.00    -0.221 NA
ATOM      4  C   UNL     1     -30.665 -13.590  18.676  0.00  0.00    +0.150 A 
ATOM      5  C   UNL     1     -29.563 -13.161  19.428  0.00  0.00    +0.184 A 
ATOM      6  C   UNL     1     -28.345 -12.947  18.746  0.00  0.00    +0.152 A 
ATOM      7  N   UNL     1     -27.191 -12.416  19.405  0.00  0.00    -0.341 N 
ATOM      8  N   UNL     1     -28.274 -13.200  17.411  0.00  0.00    -0.198 NA
ATOM      9  H   UNL     1     -28.289 -13.752  14.863  0.00  0.00    +0.149 HD
ATOM     10  H   UNL     1     -26.287 -12.344  18.889  0.00  0.00    +0.144 HD
ATOM     11  H   UNL     1     -27.243 -11.981  20.352  0.00  0.00    +0.144 HD
ENDROOT
BRANCH   5  12
ATOM     12  N   UNL     1     -29.695 -12.982  20.847  0.00  0.00    +0.061 N 
ATOM     13  O   UNL     1     -28.630 -13.252  21.675  0.00  0.00    -0.126 OA
ATOM     14  O   UNL     1     -30.686 -12.384  21.317  0.00  0.00    -0.126 OA
ENDBRANCH   5  12
BRANCH   1  15
ATOM     15  C   UNL     1     -30.353 -14.359  14.486  0.00  0.00    +0.073 C 
BRANCH  15  17
ATOM     16  C   UNL     1     -31.710 -13.166  12.672  0.00  0.00    +0.006 C 
ATOM     17  C   UNL     1     -31.282 -13.163  14.140  0.00  0.00    +0.019 C 
ENDBRANCH  15  17
BRANCH  15  18
ATOM     18  C   UNL     1     -29.809 -15.062  13.221  0.00  0.00    +0.019 C 
ATOM     19  C   UNL     1     -28.283 -15.059  13.141  0.00  0.00    +0.006 C 
ENDBRANCH  15  18
ENDBRANCH   1  15
TORSDOF 4
ENDMDL
MODEL 7
REMARK VINA RESULT:    -3.454      4.881      6.715
REMARK INTER + INTRA:          -4.933
REMARK INTER:                  -4.601
REMARK INTRA:                  -0.332
REMARK UNBOUND:                -0.671
REMARK  Name = 
REMARK  6 active torsions:
REMARK  status: ('A' for Active; 'I' for Inactive)
REMARK    1  A    between atoms: C_1  and  C_2
REMARK    2  A    between atoms: C_2  and  C_3
REMARK    3  A    between atoms: C_3  and  C_4
REMARK    4  A    between atoms: C_3  and  N_6
REMARK    5  A    between atoms: C_4  and  C_5
REMARK    6  A    between atoms: C_10  and  N_14
REMARK                            x       y       z     vdW  Elec       q    Type
REMARK                         _______ _______ _______ _____ _____    ______ ____
ROOT
ATOM      1  N   UNL     1     -31.843 -12.061  14.172  0.00  0.00    -0.311 N 
ATOM      2  C   UNL     1     -31.584 -11.256  15.329  0.00  0.00    +0.217 A 
ATOM      3  N   UNL     1     -30.511 -11.507  16.123  0.00  0.00    -0.221 NA
ATOM      4  C   UNL     1     -30.257 -10.751  17.220  0.00  0.00    +0.150 A 
ATOM      5  C   UNL     1     -31.097  -9.680  17.552  0.00  0.00    +0.184 A 
ATOM      6  C   UNL     1     -32.223  -9.450  16.731  0.00  0.00    +0.152 A 
ATOM      7  N   UNL     1     -33.193  -8.445  17.042  0.00  0.00    -0.341 N 
ATOM      8  N   UNL     1     -32.428 -10.239  15.643  0.00  0.00    -0.198 NA
ATOM      9  H   UNL     1     -32.669 -11.816  13.580  0.00  0.00    +0.149 HD
ATOM     10  H   UNL     1     -33.970  -8.252  16.372  0.00  0.00    +0.144 HD
ATOM     11  H   UNL     1     -33.228  -7.975  17.972  0.00  0.00    +0.144 HD
ENDROOT
BRANCH   5  12
ATOM     12  N   UNL     1     -30.778  -8.846  18.678  0.00  0.00    +0.061 N 
ATOM     13  O   UNL     1     -31.714  -7.962  19.163  0.00  0.00    -0.126 OA
ATOM     14  O   UNL     1     -29.750  -9.063  19.352  0.00  0.00    -0.126 OA
ENDBRANCH   5  12
BRANCH   1  15
ATOM     15  C   UNL     1     -30.974 -13.179  13.780  0.00  0.00    +0.073 C 
BRANCH  15  17
ATOM     16  C   UNL     1     -29.639 -14.891  15.136  0.00  0.00    +0.006 C 
ATOM     17  C   UNL     1     -31.016 -14.281  14.875  0.00  0.00    +0.019 C 
ENDBRANCH  15  17
BRANCH  15  18
ATOM     18  C   UNL     1     -31.416 -13.711  12.397  0.00  0.00    +0.019 C 
ATOM     19  C   UNL     1     -32.794 -13.207  11.972  0.00  0.00    +0.006 C 
ENDBRANCH  15  18
ENDBRANCH   1  15
TORSDOF 4
ENDMDL
MODEL 8
REMARK VINA RESULT:    -3.323      2.610      3.226
REMARK INTER + INTRA:          -4.771
REMARK INTER:                  -4.198
REMARK INTRA:                  -0.573
REMARK UNBOUND:                -0.671
REMARK  Name = 
REMARK  6 active torsions:
REMARK  status: ('A' for Active; 'I' for Inactive)
REMARK    1  A    between atoms: C_1  and  C_2
REMARK    2  A    between atoms: C_2  and  C_3
REMARK    3  A    between atoms: C_3  and  C_4
REMARK    4  A    between atoms: C_3  and  N_6
REMARK    5  A    between atoms: C_4  and  C_5
REMARK    6  A    between atoms: C_10  and  N_14
REMARK                            x       y       z     vdW  Elec       q    Type
REMARK                         _______ _______ _______ _____ _____    ______ ____
ROOT
ATOM      1  N   UNL     1     -32.318 -10.795  17.686  0.00  0.00    -0.311 N 
ATOM      2  C   UNL     1     -30.964 -11.151  17.991  0.00  0.00    +0.217 A 
ATOM      3  N   UNL     1     -29.949 -10.278  17.759  0.00  0.00    -0.221 NA
ATOM      4  C   UNL     1     -28.663 -10.605  18.043  0.00  0.00    +0.150 A 
ATOM      5  C   UNL     1     -28.357 -11.854  18.599  0.00  0.00    +0.184 A 
ATOM      6  C   UNL     1     -29.421 -12.759  18.809  0.00  0.00    +0.152 A 
ATOM      7  N   UNL     1     -29.199 -14.092  19.278  0.00  0.00    -0.341 N 
ATOM      8  N   UNL     1     -30.691 -12.377  18.506  0.00  0.00    -0.198 NA
ATOM      9  H   UNL     1     -33.068 -11.492  17.903  0.00  0.00    +0.149 HD
ATOM     10  H   UNL     1     -30.015 -14.706  19.495  0.00  0.00    +0.144 HD
ATOM     11  H   UNL     1     -28.250 -14.523  19.300  0.00  0.00    +0.144 HD
ENDROOT
BRANCH   5  12
ATOM     12  N   UNL     1     -27.000 -12.161  18.958  0.00  0.00    +0.061 N 
ATOM     13  O   UNL     1     -26.677 -13.421  19.405  0.00  0.00    -0.126 OA
ATOM     14  O   UNL     1     -26.077 -11.371  18.669  0.00  0.00    -0.126 OA
ENDBRANCH   5  12
BRANCH   1  15
ATOM     15  C   UNL     1     -32.682  -9.488  17.123  0.00  0.00    +0.073 C 
BRANCH  15  17
ATOM     16  C   UNL     1     -34.449  -8.651  15.471  0.00  0.00    +0.006 C 
ATOM     17  C   UNL     1     -33.357  -9.686  15.738  0.00  0.00    +0.019 C 
ENDBRANCH  15  17
BRANCH  15  18
ATOM     18  C   UNL     1     -33.597  -8.737  18.118  0.00  0.00    +0.019 C 
ATOM     19  C   UNL     1     -32.820  -7.929  19.156  0.00  0.00    +0.006 C 
ENDBRANCH  15  18
ENDBRANCH   1  15
TORSDOF 4
ENDMDL
MODEL 9
REMARK VINA RESULT:    -3.267      5.635      7.227
REMARK INTER + INTRA:          -4.702
REMARK INTER:                  -4.042
REMARK INTRA:                  -0.660
REMARK UNBOUND:                -0.671
REMARK  Name = 
REMARK  6 active torsions:
REMARK  status: ('A' for Active; 'I' for Inactive)
REMARK    1  A    between atoms: C_1  and  C_2
REMARK    2  A    between atoms: C_2  and  C_3
REMARK    3  A    between atoms: C_3  and  C_4
REMARK    4  A    between atoms: C_3  and  N_6
REMARK    5  A    between atoms: C_4  and  C_5
REMARK    6  A    between atoms: C_10  and  N_14
REMARK                            x       y       z     vdW  Elec       q    Type
REMARK                         _______ _______ _______ _____ _____    ______ ____
ROOT
ATOM      1  N   UNL     1     -31.674 -11.908  13.932  0.00  0.00    -0.311 N 
ATOM      2  C   UNL     1     -32.140 -11.580  15.247  0.00  0.00    +0.217 A 
ATOM      3  N   UNL     1     -32.727 -12.522  16.030  0.00  0.00    -0.221 NA
ATOM      4  C   UNL     1     -33.172 -12.222  17.276  0.00  0.00    +0.150 A 
ATOM      5  C   UNL     1     -33.021 -10.927  17.788  0.00  0.00    +0.184 A 
ATOM      6  C   UNL     1     -32.434  -9.953  16.951  0.00  0.00    +0.152 A 
ATOM      7  N   UNL     1     -32.327  -8.581  17.344  0.00  0.00    -0.341 N 
ATOM      8  N   UNL     1     -32.005 -10.311  15.711  0.00  0.00    -0.198 NA
ATOM      9  H   UNL     1     -31.209 -11.155  13.375  0.00  0.00    +0.149 HD
ATOM     10  H   UNL     1     -31.818  -7.906  16.732  0.00  0.00    +0.144 HD
ATOM     11  H   UNL     1     -32.843  -8.197  18.164  0.00  0.00    +0.144 HD
ENDROOT
BRANCH   5  12
ATOM     12  N   UNL     1     -33.436 -10.640  19.134  0.00  0.00    +0.061 N 
ATOM     13  O   UNL     1     -33.134 -11.521  20.147  0.00  0.00    -0.126 OA
ATOM     14  O   UNL     1     -33.875  -9.509  19.431  0.00  0.00    -0.126 OA
ENDBRANCH   5  12
BRANCH   1  15
ATOM     15  C   UNL     1     -31.794 -13.259  13.369  0.00  0.00    +0.073 C 
BRANCH  15  17
ATOM     16  C   UNL     1     -33.823 -12.637  11.938  0.00  0.00    +0.006 C 
ATOM     17  C   UNL     1     -32.393 -13.176  11.938  0.00  0.00    +0.019 C 
ENDBRANCH  15  17
BRANCH  15  18
ATOM     18  C   UNL     1     -30.409 -13.946  13.384  0.00  0.00    +0.019 C 
ATOM     19  C   UNL     1     -30.155 -14.759  14.653  0.00  0.00    +0.006 C 
ENDBRANCH  15  18
ENDBRANCH   1  15
TORSDOF 4
ENDMDL
