MODEL 1
REMARK VINA RESULT:    -3.598      0.000      0.000
REMARK INTER + INTRA:          -5.087
REMARK INTER:                  -4.439
REMARK INTRA:                  -0.648
REMARK UNBOUND:                -0.648
REMARK  Name = 
REMARK  6 active torsions:
REMARK  status: ('A' for Active; 'I' for Inactive)
REMARK    1  A    between atoms: C_1  and  C_2
REMARK    2  A    between atoms: C_2  and  C_3
REMARK    3  A    between atoms: C_3  and  C_4
REMARK    4  A    between atoms: C_3  and  N_6
REMARK    5  A    between atoms: C_4  and  C_5
REMARK    6  A    between atoms: C_10  and  N_14
REMARK                            x       y       z     vdW  Elec       q    Type
REMARK                         _______ _______ _______ _____ _____    ______ ____
ROOT
ATOM      1  N   UNL     1     -31.619 -12.958  14.861  0.00  0.00    -0.311 N 
ATOM      2  C   UNL     1     -30.867 -12.506  15.995  0.00  0.00    +0.217 A 
ATOM      3  N   UNL     1     -30.641 -11.181  16.192  0.00  0.00    -0.221 NA
ATOM      4  C   UNL     1     -29.931 -10.742  17.262  0.00  0.00    +0.150 A 
ATOM      5  C   UNL     1     -29.424 -11.654  18.197  0.00  0.00    +0.184 A 
ATOM      6  C   UNL     1     -29.646 -13.029  17.962  0.00  0.00    +0.152 A 
ATOM      7  N   UNL     1     -29.085 -14.041  18.804  0.00  0.00    -0.341 N 
ATOM      8  N   UNL     1     -30.366 -13.411  16.874  0.00  0.00    -0.198 NA
ATOM      9  H   UNL     1     -31.786 -13.986  14.763  0.00  0.00    +0.149 HD
ATOM     10  H   UNL     1     -29.334 -15.042  18.644  0.00  0.00    +0.144 HD
ATOM     11  H   UNL     1     -28.338 -13.833  19.501  0.00  0.00    +0.144 HD
ENDROOT
BRANCH   5  12
ATOM     12  N   UNL     1     -28.732 -11.171  19.360  0.00  0.00    +0.061 N 
ATOM     13  O   UNL     1     -29.391 -10.375  20.268  0.00  0.00    -0.126 OA
ATOM     14  O   UNL     1     -27.615 -11.636  19.667  0.00  0.00    -0.126 OA
ENDBRANCH   5  12
BRANCH   1  15
ATOM     15  C   UNL     1     -32.184 -12.032  13.870  0.00  0.00    +0.073 C 
BRANCH  15  17
ATOM     16  C   UNL     1     -33.419 -13.171  11.939  0.00  0.00    +0.006 C 
ATOM     17  C   UNL     1     -32.075 -12.655  12.452  0.00  0.00    +0.019 C 
ENDBRANCH  15  17
BRANCH  15  18
ATOM     18  C   UNL     1     -33.645 -11.701  14.253  0.00  0.00    +0.019 C 
ATOM     19  C   UNL     1     -33.850 -10.234  14.626  0.00  0.00    +0.006 C 
ENDBRANCH  15  18
ENDBRANCH   1  15
TORSDOF 4
ENDMDL
MODEL 2
REMARK VINA RESULT:    -3.565      2.438      3.546
REMARK INTER + INTRA:          -5.046
REMARK INTER:                  -4.458
REMARK INTRA:                  -0.588
REMARK UNBOUND:                -0.648
REMARK  Name = 
REMARK  6 active torsions:
REMARK  status: ('A' for Active; 'I' for Inactive)
REMARK    1  A    between atoms: C_1  and  C_2
REMARK    2  A    between atoms: C_2  and  C_3
REMARK    3  A    between atoms: C_3  and  C_4
REMARK    4  A    between atoms: C_3  and  N_6
REMARK    5  A    between atoms: C_4  and  C_5
REMARK    6  A    between atoms: C_10  and  N_14
REMARK                            x       y       z     vdW  Elec       q    Type
REMARK                         _______ _______ _______ _____ _____    ______ ____
ROOT
ATOM      1  N   UNL     1     -30.709 -11.635  17.952  0.00  0.00    -0.311 N 
ATOM      2  C   UNL     1     -29.504 -12.073  18.592  0.00  0.00    +0.217 A 
ATOM      3  N   UNL     1     -28.292 -11.635  18.162  0.00  0.00    -0.221 NA
ATOM      4  C   UNL     1     -27.145 -12.043  18.762  0.00  0.00    +0.150 A 
ATOM      5  C   UNL     1     -27.190 -12.921  19.853  0.00  0.00    +0.184 A 
ATOM      6  C   UNL     1     -28.457 -13.387  20.269  0.00  0.00    +0.152 A 
ATOM      7  N   UNL     1     -28.601 -14.361  21.307  0.00  0.00    -0.341 N 
ATOM      8  N   UNL     1     -29.574 -12.944  19.632  0.00  0.00    -0.198 NA
ATOM      9  H   UNL     1     -31.619 -11.983  18.332  0.00  0.00    +0.149 HD
ATOM     10  H   UNL     1     -29.554 -14.624  21.641  0.00  0.00    +0.144 HD
ATOM     11  H   UNL     1     -27.793 -14.914  21.667  0.00  0.00    +0.144 HD
ENDROOT
BRANCH   5  12
ATOM     12  N   UNL     1     -25.973 -13.292  20.520  0.00  0.00    +0.061 N 
ATOM     13  O   UNL     1     -25.996 -13.621  21.855  0.00  0.00    -0.126 OA
ATOM     14  O   UNL     1     -24.939 -13.525  19.860  0.00  0.00    -0.126 OA
ENDBRANCH   5  12
BRANCH   1  15
ATOM     15  C   UNL     1     -30.704 -10.700  16.819  0.00  0.00    +0.073 C 
BRANCH  15  17
ATOM     16  C   UNL     1     -32.346 -10.858  14.862  0.00  0.00    +0.006 C 
ATOM     17  C   UNL     1     -31.100 -11.452  15.519  0.00  0.00    +0.019 C 
ENDBRANCH  15  17
BRANCH  15  18
ATOM     18  C   UNL     1     -31.655  -9.520  17.126  0.00  0.00    +0.019 C 
ATOM     19  C   UNL     1     -31.525  -8.998  18.556  0.00  0.00    +0.006 C 
ENDBRANCH  15  18
ENDBRANCH   1  15
TORSDOF 4
ENDMDL
MODEL 3
REMARK VINA RESULT:    -3.552      2.404      3.401
REMARK INTER + INTRA:          -5.030
REMARK INTER:                  -4.603
REMARK INTRA:                  -0.427
REMARK UNBOUND:                -0.648
REMARK  Name = 
REMARK  6 active torsions:
REMARK  status: ('A' for Active; 'I' for Inactive)
REMARK    1  A    between atoms: C_1  and  C_2
REMARK    2  A    between atoms: C_2  and  C_3
REMARK    3  A    between atoms: C_3  and  C_4
REMARK    4  A    between atoms: C_3  and  N_6
REMARK    5  A    between atoms: C_4  and  C_5
REMARK    6  A    between atoms: C_10  and  N_14
REMARK                            x       y       z     vdW  Elec       q    Type
REMARK                         _______ _______ _______ _____ _____    ______ ____
ROOT
ATOM      1  N   UNL     1     -29.072 -14.146  14.971  0.00  0.00    -0.311 N 
ATOM      2  C   UNL     1     -29.361 -13.875  16.349  0.00  0.00    +0.217 A 
ATOM      3  N   UNL     1     -30.622 -14.021  16.835  0.00  0.00    -0.221 NA
ATOM      4  C   UNL     1     -30.906 -13.768  18.137  0.00  0.00    +0.150 A 
ATOM      5  C   UNL     1     -29.894 -13.358  19.015  0.00  0.00    +0.184 A 
ATOM      6  C   UNL     1     -28.596 -13.184  18.487  0.00  0.00    +0.152 A 
ATOM      7  N   UNL     1     -27.518 -12.675  19.279  0.00  0.00    -0.341 N 
ATOM      8  N   UNL     1     -28.368 -13.455  17.174  0.00  0.00    -0.198 NA
ATOM      9  H   UNL     1     -28.084 -14.039  14.649  0.00  0.00    +0.149 HD
ATOM     10  H   UNL     1     -26.556 -12.633  18.877  0.00  0.00    +0.144 HD
ATOM     11  H   UNL     1     -27.675 -12.227  20.208  0.00  0.00    +0.144 HD
ENDROOT
BRANCH   5  12
ATOM     12  N   UNL     1     -30.195 -13.158  20.406  0.00  0.00    +0.061 N 
ATOM     13  O   UNL     1     -29.220 -13.359  21.355  0.00  0.00    -0.126 OA
ATOM     14  O   UNL     1     -31.260 -12.601  20.746  0.00  0.00    -0.126 OA
ENDBRANCH   5  12
BRANCH   1  15
ATOM     15  C   UNL     1     -30.101 -14.597  14.025  0.00  0.00    +0.073 C 
BRANCH  15  17
ATOM     16  C   UNL     1     -31.740 -13.512  12.384  0.00  0.00    +0.006 C 
ATOM     17  C   UNL     1     -31.125 -13.454  13.783  0.00  0.00    +0.019 C 
ENDBRANCH  15  17
BRANCH  15  18
ATOM     18  C   UNL     1     -29.424 -15.062  12.715  0.00  0.00    +0.019 C 
ATOM     19  C   UNL     1     -27.959 -14.639  12.613  0.00  0.00    +0.006 C 
ENDBRANCH  15  18
ENDBRANCH   1  15
TORSDOF 4
ENDMDL
MODEL 4
REMARK VINA RESULT:    -3.414      2.013      2.543
REMARK INTER + INTRA:          -4.860
REMARK INTER:                  -4.239
REMARK INTRA:                  -0.621
REMARK UNBOUND:                -0.648
REMARK  Name = 
REMARK  6 active torsions:
REMARK  status: ('A' for Active; 'I' for Inactive)
REMARK    1  A    between atoms: C_1  and  C_2
REMARK    2  A    between atoms: C_2  and  C_3
REMARK    3  A    between atoms: C_3  and  C_4
REMARK    4  A    between atoms: C_3  and  N_6
REMARK    5  A    between atoms: C_4  and  C_5
REMARK    6  A    between atoms: C_10  and  N_14
REMARK                            x       y       z     vdW  Elec       q    Type
REMARK                         _______ _______ _______ _____ _____    ______ ____
ROOT
ATOM      1  N   UNL     1     -31.043 -13.957  15.629  0.00  0.00    -0.311 N 
ATOM      2  C   UNL     1     -30.314 -13.620  16.816  0.00  0.00    +0.217 A 
ATOM      3  N   UNL     1     -29.065 -13.092  16.737  0.00  0.00    -0.221 NA
ATOM      4  C   UNL     1     -28.366 -12.769  17.854  0.00  0.00    +0.150 A 
ATOM      5  C   UNL     1     -28.930 -12.966  19.122  0.00  0.00    +0.184 A 
ATOM      6  C   UNL     1     -30.218 -13.541  19.187  0.00  0.00    +0.152 A 
ATOM      7  N   UNL     1     -30.837 -13.872  20.434  0.00  0.00    -0.341 N 
ATOM      8  N   UNL     1     -30.872 -13.843  18.034  0.00  0.00    -0.198 NA
ATOM      9  H   UNL     1     -32.009 -14.341  15.740  0.00  0.00    +0.149 HD
ATOM     10  H   UNL     1     -31.819 -14.224  20.446  0.00  0.00    +0.144 HD
ATOM     11  H   UNL     1     -30.305 -13.892  21.330  0.00  0.00    +0.144 HD
ENDROOT
BRANCH   5  12
ATOM     12  N   UNL     1     -28.206 -12.558  20.294  0.00  0.00    +0.061 N 
ATOM     13  O   UNL     1     -28.815 -11.756  21.232  0.00  0.00    -0.126 OA
ATOM     14  O   UNL     1     -27.113 -13.091  20.578  0.00  0.00    -0.126 OA
ENDBRANCH   5  12
BRANCH   1  15
ATOM     15  C   UNL     1     -30.495 -13.747  14.283  0.00  0.00    +0.073 C 
BRANCH  15  17
ATOM     16  C   UNL     1     -28.312 -14.928  13.655  0.00  0.00    +0.006 C 
ATOM     17  C   UNL     1     -29.830 -15.057  13.779  0.00  0.00    +0.019 C 
ENDBRANCH  15  17
BRANCH  15  18
ATOM     18  C   UNL     1     -31.622 -13.263  13.341  0.00  0.00    +0.019 C 
ATOM     19  C   UNL     1     -32.305 -11.986  13.828  0.00  0.00    +0.006 C 
ENDBRANCH  15  18
ENDBRANCH   1  15
TORSDOF 4
ENDMDL
MODEL 5
REMARK VINA RESULT:    -3.308      2.263      3.176
REMARK INTER + INTRA:          -4.729
REMARK INTER:                  -4.123
REMARK INTRA:                  -0.606
REMARK UNBOUND:                -0.648
REMARK  Name = 
REMARK  6 active torsions:
REMARK  status: ('A' for Active; 'I' for Inactive)
REMARK    1  A    between atoms: C_1  and  C_2
REMARK    2  A    between atoms: C_2  and  C_3
REMARK    3  A    between atoms: C_3  and  C_4
REMARK    4  A    between atoms: C_3  and  N_6
REMARK    5  A    between atoms: C_4  and  C_5
REMARK    6  A    between atoms: C_10  and  N_14
REMARK                            x       y       z     vdW  Elec       q    Type
REMARK                         _______ _______ _______ _____ _____    ______ ____
ROOT
ATOM      1  N   UNL     1     -32.497 -10.672  17.398  0.00  0.00    -0.311 N 
ATOM      2  C   UNL     1     -31.158 -11.076  17.713  0.00  0.00    +0.217 A 
ATOM      3  N   UNL     1     -30.144 -10.172  17.716  0.00  0.00    -0.221 NA
ATOM      4  C   UNL     1     -28.873 -10.543  18.013  0.00  0.00    +0.150 A 
ATOM      5  C   UNL     1     -28.583 -11.876  18.336  0.00  0.00    +0.184 A 
ATOM      6  C   UNL     1     -29.643 -12.807  18.301  0.00  0.00    +0.152 A 
ATOM      7  N   UNL     1     -29.431 -14.205  18.517  0.00  0.00    -0.341 N 
ATOM      8  N   UNL     1     -30.898 -12.378  17.998  0.00  0.00    -0.198 NA
ATOM      9  H   UNL     1     -33.247 -11.399  17.429  0.00  0.00    +0.149 HD
ATOM     10  H   UNL     1     -30.249 -14.852  18.560  0.00  0.00    +0.144 HD
ATOM     11  H   UNL     1     -28.478 -14.629  18.514  0.00  0.00    +0.144 HD
ENDROOT
BRANCH   5  12
ATOM     12  N   UNL     1     -27.246 -12.242  18.713  0.00  0.00    +0.061 N 
ATOM     13  O   UNL     1     -26.226 -11.325  18.600  0.00  0.00    -0.126 OA
ATOM     14  O   UNL     1     -27.035 -13.301  19.339  0.00  0.00    -0.126 OA
ENDBRANCH   5  12
BRANCH   1  15
ATOM     15  C   UNL     1     -32.845  -9.282  17.075  0.00  0.00    +0.073 C 
BRANCH  15  17
ATOM     16  C   UNL     1     -33.413 -10.372  14.830  0.00  0.00    +0.006 C 
ATOM     17  C   UNL     1     -33.749  -9.250  15.812  0.00  0.00    +0.019 C 
ENDBRANCH  15  17
BRANCH  15  18
ATOM     18  C   UNL     1     -33.526  -8.626  18.299  0.00  0.00    +0.019 C 
ATOM     19  C   UNL     1     -32.553  -7.847  19.182  0.00  0.00    +0.006 C 
ENDBRANCH  15  18
ENDBRANCH   1  15
TORSDOF 4
ENDMDL
MODEL 6
REMARK VINA RESULT:    -3.307      2.420      3.201
REMARK INTER + INTRA:          -4.728
REMARK INTER:                  -4.132
REMARK INTRA:                  -0.595
REMARK UNBOUND:                -0.648
REMARK  Name = 
REMARK  6 active torsions:
REMARK  status: ('A' for Active; 'I' for Inactive)
REMARK    1  A    between atoms: C_1  and  C_2
REMARK    2  A    between atoms: C_2  and  C_3
REMARK    3  A    between atoms: C_3  and  C_4
REMARK    4  A    between atoms: C_3  and  N_6
REMARK    5  A    between atoms: C_4  and  C_5
REMARK    6  A    between atoms: C_10  and  N_14
REMARK                            x       y       z     vdW  Elec       q    Type
REMARK                         _______ _______ _______ _____ _____    ______ ____
ROOT
ATOM      1  N   UNL     1     -32.573 -12.304  14.525  0.00  0.00    -0.311 N 
ATOM      2  C   UNL     1     -32.183 -11.418  15.582  0.00  0.00    +0.217 A 
ATOM      3  N   UNL     1     -30.917 -10.929  15.645  0.00  0.00    -0.221 NA
ATOM      4  C   UNL     1     -30.537 -10.090  16.641  0.00  0.00    +0.150 A 
ATOM      5  C   UNL     1     -31.455  -9.699  17.625  0.00  0.00    +0.184 A 
ATOM      6  C   UNL     1     -32.758 -10.239  17.560  0.00  0.00    +0.152 A 
ATOM      7  N   UNL     1     -33.736  -9.980  18.572  0.00  0.00    -0.341 N 
ATOM      8  N   UNL     1     -33.084 -11.074  16.538  0.00  0.00    -0.198 NA
ATOM      9  H   UNL     1     -33.564 -12.637  14.507  0.00  0.00    +0.149 HD
ATOM     10  H   UNL     1     -34.711 -10.332  18.451  0.00  0.00    +0.144 HD
ATOM     11  H   UNL     1     -33.486  -9.554  19.491  0.00  0.00    +0.144 HD
ENDROOT
BRANCH   5  12
ATOM     12  N   UNL     1     -31.058  -8.758  18.636  0.00  0.00    +0.061 N 
ATOM     13  O   UNL     1     -31.945  -7.799  19.065  0.00  0.00    -0.126 OA
ATOM     14  O   UNL     1     -30.001  -8.932  19.278  0.00  0.00    -0.126 OA
ENDBRANCH   5  12
BRANCH   1  15
ATOM     15  C   UNL     1     -31.647 -12.720  13.463  0.00  0.00    +0.073 C 
BRANCH  15  17
ATOM     16  C   UNL     1     -29.758 -14.361  12.926  0.00  0.00    +0.006 C 
ATOM     17  C   UNL     1     -30.828 -13.951  13.938  0.00  0.00    +0.019 C 
ENDBRANCH  15  17
BRANCH  15  18
ATOM     18  C   UNL     1     -32.446 -13.011  12.171  0.00  0.00    +0.019 C 
ATOM     19  C   UNL     1     -33.941 -12.733  12.314  0.00  0.00    +0.006 C 
ENDBRANCH  15  18
ENDBRANCH   1  15
TORSDOF 4
ENDMDL
MODEL 7
REMARK VINA RESULT:    -3.280      2.991      3.802
REMARK INTER + INTRA:          -4.694
REMARK INTER:                  -4.031
REMARK INTRA:                  -0.663
REMARK UNBOUND:                -0.648
REMARK  Name = 
REMARK  6 active torsions:
REMARK  status: ('A' for Active; 'I' for Inactive)
REMARK    1  A    between atoms: C_1  and  C_2
REMARK    2  A    between atoms: C_2  and  C_3
REMARK    3  A    between atoms: C_3  and  C_4
REMARK    4  A    between atoms: C_3  and  N_6
REMARK    5  A    between atoms: C_4  and  C_5
REMARK    6  A    between atoms: C_10  and  N_14
REMARK                            x       y       z     vdW  Elec       q    Type
REMARK                         _______ _______ _______ _____ _____    ______ ____
ROOT
ATOM      1  N   UNL     1     -31.645 -11.896  13.938  0.00  0.00    -0.311 N 
ATOM      2  C   UNL     1     -32.054 -11.594  15.278  0.00  0.00    +0.217 A 
ATOM      3  N   UNL     1     -32.566 -12.562  16.082  0.00  0.00    -0.221 NA
ATOM      4  C   UNL     1     -32.956 -12.287  17.352  0.00  0.00    +0.150 A 
ATOM      5  C   UNL     1     -32.825 -10.990  17.867  0.00  0.00    +0.184 A 
ATOM      6  C   UNL     1     -32.317  -9.990  17.009  0.00  0.00    +0.152 A 
ATOM      7  N   UNL     1     -32.240  -8.618  17.408  0.00  0.00    -0.341 N 
ATOM      8  N   UNL     1     -31.941 -10.324  15.745  0.00  0.00    -0.198 NA
ATOM      9  H   UNL     1     -31.238 -11.123  13.365  0.00  0.00    +0.149 HD
ATOM     10  H   UNL     1     -31.787  -7.921  16.776  0.00  0.00    +0.144 HD
ATOM     11  H   UNL     1     -32.726  -8.258  18.256  0.00  0.00    +0.144 HD
ENDROOT
BRANCH   5  12
ATOM     12  N   UNL     1     -33.180 -10.727  19.234  0.00  0.00    +0.061 N 
ATOM     13  O   UNL     1     -33.831  -9.560  19.562  0.00  0.00    -0.126 OA
ATOM     14  O   UNL     1     -33.098 -11.631  20.091  0.00  0.00    -0.126 OA
ENDBRANCH   5  12
BRANCH   1  15
ATOM     15  C   UNL     1     -31.746 -13.247  13.370  0.00  0.00    +0.073 C 
BRANCH  15  17
ATOM     16  C   UNL     1     -33.799 -12.687  11.948  0.00  0.00    +0.006 C 
ATOM     17  C   UNL     1     -32.348 -13.168  11.940  0.00  0.00    +0.019 C 
ENDBRANCH  15  17
BRANCH  15  18
ATOM     18  C   UNL     1     -30.350 -13.913  13.381  0.00  0.00    +0.019 C 
ATOM     19  C   UNL     1     -30.126 -14.818  14.591  0.00  0.00    +0.006 C 
ENDBRANCH  15  18
ENDBRANCH   1  15
TORSDOF 4
ENDMDL
