MODEL 1
REMARK VINA RESULT:    -5.659      0.000      0.000
REMARK INTER + INTRA:         -11.720
REMARK INTER:                  -8.306
REMARK INTRA:                  -3.414
REMARK UNBOUND:                -3.414
REMARK  Name = 
REMARK  9 active torsions:
REMARK  status: ('A' for Active; 'I' for Inactive)
REMARK    1  A    between atoms: C_2  and  OXT_3
REMARK    2  A    between atoms: C_2  and  CA_4
REMARK    3  A    between atoms: CA_4  and  CB_5
REMARK    4  A    between atoms: CA_4  and  N_13
REMARK    5  A    between atoms: CB_5  and  CG_6
REMARK    6  A    between atoms: CZ_9  and  OH_10
REMARK    7  A    between atoms: C_14  and  C_16
REMARK    8  A    between atoms: C_16  and  C_17
REMARK    9  A    between atoms: C_16  and  C_23
REMARK                            x       y       z     vdW  Elec       q    Type
REMARK                         _______ _______ _______ _____ _____    ______ ____
ROOT
ATOM      1  N   TYR A   1     -29.600 -12.579  17.829  0.00  0.00    -0.301 N 
ATOM      2  C   UNK A   0     -30.452 -13.693  17.520  0.00  0.00    +0.225 C 
ATOM      3  O   UNK A   0     -30.517 -14.675  18.310  0.00  0.00    -0.275 OA
ATOM      4  H   TYR A   1     -29.538 -11.797  17.138  0.00  0.00    +0.150 HD
ENDROOT
BRANCH   1   5
ATOM      5  CA  TYR A   1     -29.036 -12.372  19.168  0.00  0.00    +0.186 C 
BRANCH   5   7
ATOM      6  O   TYR A   1     -26.713 -11.771  19.086  0.00  0.00    -0.249 OA
ATOM      7  C   TYR A   1     -27.568 -12.694  19.159  0.00  0.00    +0.326 C 
BRANCH   7   8
ATOM      8  OXT TYR A   1     -27.150 -14.019  19.254  0.00  0.00    -0.479 OA
ATOM      9  HXT TYR A   1     -27.824 -14.775  19.272  0.00  0.00    +0.295 HD
ENDBRANCH   7   8
ENDBRANCH   5   7
BRANCH   5  10
ATOM     10  CB  TYR A   1     -29.263 -10.922  19.630  0.00  0.00    +0.069 C 
BRANCH  10  11
ATOM     11  CG  TYR A   1     -30.717 -10.533  19.536  0.00  0.00    -0.045 A 
ATOM     12  CD1 TYR A   1     -31.710 -11.355  20.095  0.00  0.00    +0.007 A 
ATOM     13  CE1 TYR A   1     -33.052 -10.961  20.062  0.00  0.00    +0.045 A 
ATOM     14  CZ  TYR A   1     -33.412  -9.735  19.488  0.00  0.00    +0.117 A 
ATOM     15  CE2 TYR A   1     -32.427  -8.915  18.930  0.00  0.00    +0.045 A 
ATOM     16  CD2 TYR A   1     -31.086  -9.310  18.952  0.00  0.00    +0.007 A 
BRANCH  14  17
ATOM     17  OH  TYR A   1     -34.742  -9.323  19.473  0.00  0.00    -0.507 OA
ATOM     18  HH  TYR A   1     -35.494  -9.966  19.255  0.00  0.00    +0.292 HD
ENDBRANCH  14  17
ENDBRANCH  10  11
ENDBRANCH   5  10
ENDBRANCH   1   5
BRANCH   2  19
ATOM     19  C   UNK A   0     -31.250 -13.698  16.235  0.00  0.00    +0.135 C 
BRANCH  19  20
ATOM     20  C   UNK A   0     -31.999 -12.397  15.996  0.00  0.00    -0.031 A 
ATOM     21  C   UNK A   0     -31.363 -11.248  15.479  0.00  0.00    +0.005 A 
ATOM     22  C   UNK A   0     -32.095 -10.081  15.238  0.00  0.00    +0.000 A 
ATOM     23  C   UNK A   0     -33.466 -10.048  15.498  0.00  0.00    +0.000 A 
ATOM     24  C   UNK A   0     -34.111 -11.184  15.992  0.00  0.00    +0.000 A 
ATOM     25  C   UNK A   0     -33.385 -12.353  16.234  0.00  0.00    +0.005 A 
ENDBRANCH  19  20
BRANCH  19  26
ATOM     26  C   UNK A   0     -30.389 -14.071  15.041  0.00  0.00    -0.031 A 
ATOM     27  C   UNK A   0     -29.067 -14.528  15.206  0.00  0.00    +0.005 A 
ATOM     28  C   UNK A   0     -28.304 -14.906  14.098  0.00  0.00    +0.000 A 
ATOM     29  C   UNK A   0     -28.849 -14.835  12.813  0.00  0.00    +0.000 A 
ATOM     30  C   UNK A   0     -30.157 -14.381  12.636  0.00  0.00    +0.000 A 
ATOM     31  C   UNK A   0     -30.924 -14.000  13.741  0.00  0.00    +0.005 A 
ENDBRANCH  19  26
ENDBRANCH   2  19
TORSDOF 9
ENDMDL
MODEL 2
REMARK VINA RESULT:    -5.331      1.979      5.150
REMARK INTER + INTRA:         -11.239
REMARK INTER:                  -7.936
REMARK INTRA:                  -3.302
REMARK UNBOUND:                -3.414
REMARK  Name = 
REMARK  9 active torsions:
REMARK  status: ('A' for Active; 'I' for Inactive)
REMARK    1  A    between atoms: C_2  and  OXT_3
REMARK    2  A    between atoms: C_2  and  CA_4
REMARK    3  A    between atoms: CA_4  and  CB_5
REMARK    4  A    between atoms: CA_4  and  N_13
REMARK    5  A    between atoms: CB_5  and  CG_6
REMARK    6  A    between atoms: CZ_9  and  OH_10
REMARK    7  A    between atoms: C_14  and  C_16
REMARK    8  A    between atoms: C_16  and  C_17
REMARK    9  A    between atoms: C_16  and  C_23
REMARK                            x       y       z     vdW  Elec       q    Type
REMARK                         _______ _______ _______ _____ _____    ______ ____
ROOT
ATOM      1  N   TYR A   1     -31.851 -10.027  17.501  0.00  0.00    -0.301 N 
ATOM      2  C   UNK A   0     -31.136 -10.006  16.256  0.00  0.00    +0.225 C 
ATOM      3  O   UNK A   0     -30.363  -9.045  15.989  0.00  0.00    -0.275 OA
ATOM      4  H   TYR A   1     -32.511 -10.818  17.679  0.00  0.00    +0.150 HD
ENDROOT
BRANCH   1   5
ATOM      5  CA  TYR A   1     -31.498  -9.148  18.622  0.00  0.00    +0.186 C 
BRANCH   5   7
ATOM      6  O   TYR A   1     -33.775  -8.454  18.941  0.00  0.00    -0.249 OA
ATOM      7  C   TYR A   1     -32.568  -8.111  18.814  0.00  0.00    +0.326 C 
BRANCH   7   8
ATOM      8  OXT TYR A   1     -32.222  -6.764  18.874  0.00  0.00    -0.479 OA
ATOM      9  HXT TYR A   1     -31.250  -6.477  18.883  0.00  0.00    +0.295 HD
ENDBRANCH   7   8
ENDBRANCH   5   7
BRANCH   5  10
ATOM     10  CB  TYR A   1     -31.309  -9.969  19.911  0.00  0.00    +0.069 C 
BRANCH  10  11
ATOM     11  CG  TYR A   1     -30.221 -11.000  19.755  0.00  0.00    -0.045 A 
ATOM     12  CD1 TYR A   1     -30.364 -12.276  20.325  0.00  0.00    +0.007 A 
ATOM     13  CE1 TYR A   1     -29.382 -13.252  20.126  0.00  0.00    +0.045 A 
ATOM     14  CZ  TYR A   1     -28.257 -12.968  19.342  0.00  0.00    +0.117 A 
ATOM     15  CE2 TYR A   1     -28.109 -11.699  18.774  0.00  0.00    +0.045 A 
ATOM     16  CD2 TYR A   1     -29.084 -10.718  18.979  0.00  0.00    +0.007 A 
BRANCH  14  17
ATOM     17  OH  TYR A   1     -27.285 -13.940  19.117  0.00  0.00    -0.507 OA
ATOM     18  HH  TYR A   1     -26.680 -14.267  19.861  0.00  0.00    +0.292 HD
ENDBRANCH  14  17
ENDBRANCH  10  11
ENDBRANCH   5  10
ENDBRANCH   1   5
BRANCH   2  19
ATOM     19  C   UNK A   0     -31.328 -11.126  15.257  0.00  0.00    +0.135 C 
BRANCH  19  20
ATOM     20  C   UNK A   0     -31.159 -12.506  15.871  0.00  0.00    -0.031 A 
ATOM     21  C   UNK A   0     -30.023 -13.305  15.623  0.00  0.00    +0.005 A 
ATOM     22  C   UNK A   0     -29.889 -14.555  16.236  0.00  0.00    +0.000 A 
ATOM     23  C   UNK A   0     -30.874 -15.016  17.110  0.00  0.00    +0.000 A 
ATOM     24  C   UNK A   0     -31.995 -14.227  17.379  0.00  0.00    +0.000 A 
ATOM     25  C   UNK A   0     -32.135 -12.978  16.769  0.00  0.00    +0.005 A 
ENDBRANCH  19  20
BRANCH  19  26
ATOM     26  C   UNK A   0     -32.653 -11.002  14.524  0.00  0.00    -0.031 A 
ATOM     27  C   UNK A   0     -33.568  -9.976  14.834  0.00  0.00    +0.005 A 
ATOM     28  C   UNK A   0     -34.764  -9.854  14.121  0.00  0.00    +0.000 A 
ATOM     29  C   UNK A   0     -35.061 -10.749  13.091  0.00  0.00    +0.000 A 
ATOM     30  C   UNK A   0     -34.164 -11.772  12.776  0.00  0.00    +0.000 A 
ATOM     31  C   UNK A   0     -32.968 -11.900  13.488  0.00  0.00    +0.005 A 
ENDBRANCH  19  26
ENDBRANCH   2  19
TORSDOF 9
ENDMDL
MODEL 3
REMARK VINA RESULT:    -5.138      2.447      5.552
REMARK INTER + INTRA:         -10.954
REMARK INTER:                  -7.928
REMARK INTRA:                  -3.026
REMARK UNBOUND:                -3.414
REMARK  Name = 
REMARK  9 active torsions:
REMARK  status: ('A' for Active; 'I' for Inactive)
REMARK    1  A    between atoms: C_2  and  OXT_3
REMARK    2  A    between atoms: C_2  and  CA_4
REMARK    3  A    between atoms: CA_4  and  CB_5
REMARK    4  A    between atoms: CA_4  and  N_13
REMARK    5  A    between atoms: CB_5  and  CG_6
REMARK    6  A    between atoms: CZ_9  and  OH_10
REMARK    7  A    between atoms: C_14  and  C_16
REMARK    8  A    between atoms: C_16  and  C_17
REMARK    9  A    between atoms: C_16  and  C_23
REMARK                            x       y       z     vdW  Elec       q    Type
REMARK                         _______ _______ _______ _____ _____    ______ ____
ROOT
ATOM      1  N   TYR A   1     -29.938 -10.140  19.143  0.00  0.00    -0.301 N 
ATOM      2  C   UNK A   0     -29.290 -11.196  19.868  0.00  0.00    +0.225 C 
ATOM      3  O   UNK A   0     -29.440 -11.288  21.117  0.00  0.00    -0.275 OA
ATOM      4  H   TYR A   1     -29.766 -10.067  18.115  0.00  0.00    +0.150 HD
ENDROOT
BRANCH   1   5
ATOM      5  CA  TYR A   1     -31.023  -9.340  19.726  0.00  0.00    +0.186 C 
BRANCH   5   7
ATOM      6  O   TYR A   1     -30.412  -7.058  20.155  0.00  0.00    -0.249 OA
ATOM      7  C   TYR A   1     -30.448  -8.245  20.579  0.00  0.00    +0.326 C 
BRANCH   7   8
ATOM      8  OXT TYR A   1     -29.971  -8.539  21.853  0.00  0.00    -0.479 OA
ATOM      9  HXT TYR A   1     -29.054  -8.950  21.983  0.00  0.00    +0.295 HD
ENDBRANCH   7   8
ENDBRANCH   5   7
BRANCH   5  10
ATOM     10  CB  TYR A   1     -31.910  -8.746  18.618  0.00  0.00    +0.069 C 
BRANCH  10  11
ATOM     11  CG  TYR A   1     -32.152  -9.740  17.511  0.00  0.00    -0.045 A 
ATOM     12  CD1 TYR A   1     -33.274 -10.585  17.546  0.00  0.00    +0.007 A 
ATOM     13  CE1 TYR A   1     -33.531 -11.462  16.487  0.00  0.00    +0.045 A 
ATOM     14  CZ  TYR A   1     -32.680 -11.490  15.375  0.00  0.00    +0.117 A 
ATOM     15  CE2 TYR A   1     -31.561 -10.653  15.336  0.00  0.00    +0.045 A 
ATOM     16  CD2 TYR A   1     -31.296  -9.782  16.398  0.00  0.00    +0.007 A 
BRANCH  14  17
ATOM     17  OH  TYR A   1     -32.940 -12.342  14.304  0.00  0.00    -0.507 OA
ATOM     18  HH  TYR A   1     -33.452 -12.027  13.489  0.00  0.00    +0.292 HD
ENDBRANCH  14  17
ENDBRANCH  10  11
ENDBRANCH   5  10
ENDBRANCH   1   5
BRANCH   2  19
ATOM     19  C   UNK A   0     -28.409 -12.183  19.134  0.00  0.00    +0.135 C 
BRANCH  19  20
ATOM     20  C   UNK A   0     -27.557 -13.027  20.068  0.00  0.00    -0.031 A 
ATOM     21  C   UNK A   0     -28.119 -13.798  21.108  0.00  0.00    +0.005 A 
ATOM     22  C   UNK A   0     -27.304 -14.590  21.922  0.00  0.00    +0.000 A 
ATOM     23  C   UNK A   0     -25.926 -14.634  21.704  0.00  0.00    +0.000 A 
ATOM     24  C   UNK A   0     -25.359 -13.891  20.667  0.00  0.00    +0.000 A 
ATOM     25  C   UNK A   0     -26.169 -13.097  19.849  0.00  0.00    +0.005 A 
ENDBRANCH  19  20
BRANCH  19  26
ATOM     26  C   UNK A   0     -29.211 -13.049  18.178  0.00  0.00    -0.031 A 
ATOM     27  C   UNK A   0     -30.486 -13.537  18.528  0.00  0.00    +0.005 A 
ATOM     28  C   UNK A   0     -31.227 -14.298  17.619  0.00  0.00    +0.000 A 
ATOM     29  C   UNK A   0     -30.708 -14.580  16.353  0.00  0.00    +0.000 A 
ATOM     30  C   UNK A   0     -29.444 -14.106  15.996  0.00  0.00    +0.000 A 
ATOM     31  C   UNK A   0     -28.698 -13.346  16.903  0.00  0.00    +0.005 A 
ENDBRANCH  19  26
ENDBRANCH   2  19
TORSDOF 9
ENDMDL
MODEL 4
REMARK VINA RESULT:    -4.410      2.353      4.998
REMARK INTER + INTRA:          -9.886
REMARK INTER:                  -7.082
REMARK INTRA:                  -2.805
REMARK UNBOUND:                -3.414
REMARK  Name = 
REMARK  9 active torsions:
REMARK  status: ('A' for Active; 'I' for Inactive)
REMARK    1  A    between atoms: C_2  and  OXT_3
REMARK    2  A    between atoms: C_2  and  CA_4
REMARK    3  A    between atoms: CA_4  and  CB_5
REMARK    4  A    between atoms: CA_4  and  N_13
REMARK    5  A    between atoms: CB_5  and  CG_6
REMARK    6  A    between atoms: CZ_9  and  OH_10
REMARK    7  A    between atoms: C_14  and  C_16
REMARK    8  A    between atoms: C_16  and  C_17
REMARK    9  A    between atoms: C_16  and  C_23
REMARK                            x       y       z     vdW  Elec       q    Type
REMARK                         _______ _______ _______ _____ _____    ______ ____
ROOT
ATOM      1  N   TYR A   1     -30.328 -10.905  19.258  0.00  0.00    -0.301 N 
ATOM      2  C   UNK A   0     -30.334 -12.007  20.178  0.00  0.00    +0.225 C 
ATOM      3  O   UNK A   0     -30.792 -11.853  21.344  0.00  0.00    -0.275 OA
ATOM      4  H   TYR A   1     -29.910 -11.053  18.311  0.00  0.00    +0.150 HD
ENDROOT
BRANCH   1   5
ATOM      5  CA  TYR A   1     -31.113  -9.687  19.489  0.00  0.00    +0.186 C 
BRANCH   5   7
ATOM      6  O   TYR A   1     -30.269  -7.547  20.180  0.00  0.00    -0.249 OA
ATOM      7  C   TYR A   1     -30.377  -8.778  20.434  0.00  0.00    +0.326 C 
BRANCH   7   8
ATOM      8  OXT TYR A   1     -29.831  -9.294  21.605  0.00  0.00    -0.479 OA
ATOM      9  HXT TYR A   1     -30.396  -9.397  22.440  0.00  0.00    +0.295 HD
ENDBRANCH   7   8
ENDBRANCH   5   7
BRANCH   5  10
ATOM     10  CB  TYR A   1     -31.392  -8.964  18.159  0.00  0.00    +0.069 C 
BRANCH  10  11
ATOM     11  CG  TYR A   1     -31.989  -9.898  17.138  0.00  0.00    -0.045 A 
ATOM     12  CD1 TYR A   1     -33.233 -10.507  17.372  0.00  0.00    +0.007 A 
ATOM     13  CE1 TYR A   1     -33.814 -11.323  16.396  0.00  0.00    +0.045 A 
ATOM     14  CZ  TYR A   1     -33.167 -11.524  15.170  0.00  0.00    +0.117 A 
ATOM     15  CE2 TYR A   1     -31.928 -10.921  14.933  0.00  0.00    +0.045 A 
ATOM     16  CD2 TYR A   1     -31.339 -10.113  15.911  0.00  0.00    +0.007 A 
BRANCH  14  17
ATOM     17  OH  TYR A   1     -33.749 -12.314  14.182  0.00  0.00    -0.507 OA
ATOM     18  HH  TYR A   1     -34.387 -11.924  13.499  0.00  0.00    +0.292 HD
ENDBRANCH  14  17
ENDBRANCH  10  11
ENDBRANCH   5  10
ENDBRANCH   1   5
BRANCH   2  19
ATOM     19  C   UNK A   0     -29.769 -13.345  19.755  0.00  0.00    +0.135 C 
BRANCH  19  20
ATOM     20  C   UNK A   0     -30.023 -13.662  18.290  0.00  0.00    -0.031 A 
ATOM     21  C   UNK A   0     -29.020 -13.522  17.307  0.00  0.00    +0.005 A 
ATOM     22  C   UNK A   0     -29.283 -13.859  15.975  0.00  0.00    +0.000 A 
ATOM     23  C   UNK A   0     -30.538 -14.348  15.611  0.00  0.00    +0.000 A 
ATOM     24  C   UNK A   0     -31.533 -14.508  16.577  0.00  0.00    +0.000 A 
ATOM     25  C   UNK A   0     -31.276 -14.174  17.910  0.00  0.00    +0.005 A 
ENDBRANCH  19  20
BRANCH  19  26
ATOM     26  C   UNK A   0     -28.295 -13.467  20.103  0.00  0.00    -0.031 A 
ATOM     27  C   UNK A   0     -27.839 -14.424  21.031  0.00  0.00    +0.005 A 
ATOM     28  C   UNK A   0     -26.474 -14.549  21.307  0.00  0.00    +0.000 A 
ATOM     29  C   UNK A   0     -25.549 -13.725  20.662  0.00  0.00    +0.000 A 
ATOM     30  C   UNK A   0     -25.989 -12.771  19.742  0.00  0.00    +0.000 A 
ATOM     31  C   UNK A   0     -27.353 -12.640  19.464  0.00  0.00    +0.005 A 
ENDBRANCH  19  26
ENDBRANCH   2  19
TORSDOF 9
ENDMDL
MODEL 5
REMARK VINA RESULT:    -4.351      2.098      6.276
REMARK INTER + INTRA:          -9.800
REMARK INTER:                  -7.532
REMARK INTRA:                  -2.269
REMARK UNBOUND:                -3.414
REMARK  Name = 
REMARK  9 active torsions:
REMARK  status: ('A' for Active; 'I' for Inactive)
REMARK    1  A    between atoms: C_2  and  OXT_3
REMARK    2  A    between atoms: C_2  and  CA_4
REMARK    3  A    between atoms: CA_4  and  CB_5
REMARK    4  A    between atoms: CA_4  and  N_13
REMARK    5  A    between atoms: CB_5  and  CG_6
REMARK    6  A    between atoms: CZ_9  and  OH_10
REMARK    7  A    between atoms: C_14  and  C_16
REMARK    8  A    between atoms: C_16  and  C_17
REMARK    9  A    between atoms: C_16  and  C_23
REMARK                            x       y       z     vdW  Elec       q    Type
REMARK                         _______ _______ _______ _____ _____    ______ ____
ROOT
ATOM      1  N   TYR A   1     -29.697 -13.841  17.241  0.00  0.00    -0.301 N 
ATOM      2  C   UNK A   0     -29.269 -12.897  18.234  0.00  0.00    +0.225 C 
ATOM      3  O   UNK A   0     -28.783 -11.787  17.881  0.00  0.00    -0.275 OA
ATOM      4  H   TYR A   1     -30.061 -14.767  17.563  0.00  0.00    +0.150 HD
ENDROOT
BRANCH   1   5
ATOM      5  CA  TYR A   1     -29.894 -13.466  15.836  0.00  0.00    +0.186 C 
BRANCH   5   7
ATOM      6  O   TYR A   1     -29.965 -15.062  14.043  0.00  0.00    -0.249 OA
ATOM      7  C   TYR A   1     -29.276 -14.503  14.940  0.00  0.00    +0.326 C 
BRANCH   7   8
ATOM      8  OXT TYR A   1     -27.932 -14.831  15.086  0.00  0.00    -0.479 OA
ATOM      9  HXT TYR A   1     -27.297 -14.786  14.298  0.00  0.00    +0.295 HD
ENDBRANCH   7   8
ENDBRANCH   5   7
BRANCH   5  10
ATOM     10  CB  TYR A   1     -31.393 -13.312  15.524  0.00  0.00    +0.069 C 
BRANCH  10  11
ATOM     11  CG  TYR A   1     -31.923 -11.985  16.002  0.00  0.00    -0.045 A 
ATOM     12  CD1 TYR A   1     -33.058 -11.928  16.828  0.00  0.00    +0.007 A 
ATOM     13  CE1 TYR A   1     -33.511 -10.701  17.322  0.00  0.00    +0.045 A 
ATOM     14  CZ  TYR A   1     -32.825  -9.520  17.010  0.00  0.00    +0.117 A 
ATOM     15  CE2 TYR A   1     -31.696  -9.571  16.187  0.00  0.00    +0.045 A 
ATOM     16  CD2 TYR A   1     -31.246 -10.796  15.683  0.00  0.00    +0.007 A 
BRANCH  14  17
ATOM     17  OH  TYR A   1     -33.253  -8.296  17.516  0.00  0.00    -0.507 OA
ATOM     18  HH  TYR A   1     -32.973  -7.419  17.092  0.00  0.00    +0.292 HD
ENDBRANCH  14  17
ENDBRANCH  10  11
ENDBRANCH   5  10
ENDBRANCH   1   5
BRANCH   2  19
ATOM     19  C   UNK A   0     -29.379 -13.244  19.702  0.00  0.00    +0.135 C 
BRANCH  19  20
ATOM     20  C   UNK A   0     -28.038 -13.572  20.338  0.00  0.00    -0.031 A 
ATOM     21  C   UNK A   0     -27.934 -14.322  21.529  0.00  0.00    +0.005 A 
ATOM     22  C   UNK A   0     -26.680 -14.634  22.062  0.00  0.00    +0.000 A 
ATOM     23  C   UNK A   0     -25.518 -14.214  21.413  0.00  0.00    +0.000 A 
ATOM     24  C   UNK A   0     -25.606 -13.487  20.224  0.00  0.00    +0.000 A 
ATOM     25  C   UNK A   0     -26.857 -13.173  19.686  0.00  0.00    +0.005 A 
ENDBRANCH  19  20
BRANCH  19  26
ATOM     26  C   UNK A   0     -30.114 -12.166  20.480  0.00  0.00    -0.031 A 
ATOM     27  C   UNK A   0     -29.418 -11.237  21.279  0.00  0.00    +0.005 A 
ATOM     28  C   UNK A   0     -30.107 -10.226  21.955  0.00  0.00    +0.000 A 
ATOM     29  C   UNK A   0     -31.496 -10.128  21.842  0.00  0.00    +0.000 A 
ATOM     30  C   UNK A   0     -32.198 -11.044  21.056  0.00  0.00    +0.000 A 
ATOM     31  C   UNK A   0     -31.513 -12.058  20.380  0.00  0.00    +0.005 A 
ENDBRANCH  19  26
ENDBRANCH   2  19
TORSDOF 9
ENDMDL
MODEL 6
REMARK VINA RESULT:    -4.310      2.202      4.005
REMARK INTER + INTRA:          -9.740
REMARK INTER:                  -6.493
REMARK INTRA:                  -3.247
REMARK UNBOUND:                -3.414
REMARK  Name = 
REMARK  9 active torsions:
REMARK  status: ('A' for Active; 'I' for Inactive)
REMARK    1  A    between atoms: C_2  and  OXT_3
REMARK    2  A    between atoms: C_2  and  CA_4
REMARK    3  A    between atoms: CA_4  and  CB_5
REMARK    4  A    between atoms: CA_4  and  N_13
REMARK    5  A    between atoms: CB_5  and  CG_6
REMARK    6  A    between atoms: CZ_9  and  OH_10
REMARK    7  A    between atoms: C_14  and  C_16
REMARK    8  A    between atoms: C_16  and  C_17
REMARK    9  A    between atoms: C_16  and  C_23
REMARK                            x       y       z     vdW  Elec       q    Type
REMARK                         _______ _______ _______ _____ _____    ______ ____
ROOT
ATOM      1  N   TYR A   1     -30.776 -13.155  16.052  0.00  0.00    -0.301 N 
ATOM      2  C   UNK A   0     -32.125 -13.432  16.458  0.00  0.00    +0.225 C 
ATOM      3  O   UNK A   0     -32.418 -14.560  16.942  0.00  0.00    -0.275 OA
ATOM      4  H   TYR A   1     -30.570 -12.225  15.621  0.00  0.00    +0.150 HD
ENDROOT
BRANCH   1   5
ATOM      5  CA  TYR A   1     -29.646 -14.000  16.457  0.00  0.00    +0.186 C 
BRANCH   5   7
ATOM      6  O   TYR A   1     -29.753 -15.061  14.305  0.00  0.00    -0.249 OA
ATOM      7  C   TYR A   1     -29.026 -14.638  15.246  0.00  0.00    +0.326 C 
BRANCH   7   8
ATOM      8  OXT TYR A   1     -27.642 -14.745  15.153  0.00  0.00    -0.479 OA
ATOM      9  HXT TYR A   1     -27.102 -15.167  15.900  0.00  0.00    +0.295 HD
ENDBRANCH   7   8
ENDBRANCH   5   7
BRANCH   5  10
ATOM     10  CB  TYR A   1     -28.599 -13.171  17.221  0.00  0.00    +0.069 C 
BRANCH  10  11
ATOM     11  CG  TYR A   1     -29.161 -12.616  18.505  0.00  0.00    -0.045 A 
ATOM     12  CD1 TYR A   1     -28.875 -11.298  18.896  0.00  0.00    +0.007 A 
ATOM     13  CE1 TYR A   1     -29.449 -10.765  20.055  0.00  0.00    +0.045 A 
ATOM     14  CZ  TYR A   1     -30.329 -11.538  20.823  0.00  0.00    +0.117 A 
ATOM     15  CE2 TYR A   1     -30.617 -12.850  20.439  0.00  0.00    +0.045 A 
ATOM     16  CD2 TYR A   1     -30.036 -13.390  19.286  0.00  0.00    +0.007 A 
BRANCH  14  17
ATOM     17  OH  TYR A   1     -30.925 -11.008  21.965  0.00  0.00    -0.507 OA
ATOM     18  HH  TYR A   1     -31.734 -10.400  21.907  0.00  0.00    +0.292 HD
ENDBRANCH  14  17
ENDBRANCH  10  11
ENDBRANCH   5  10
ENDBRANCH   1   5
BRANCH   2  19
ATOM     19  C   UNK A   0     -33.196 -12.379  16.282  0.00  0.00    +0.135 C 
BRANCH  19  20
ATOM     20  C   UNK A   0     -32.902 -11.098  17.047  0.00  0.00    -0.031 A 
ATOM     21  C   UNK A   0     -33.586 -10.757  18.234  0.00  0.00    +0.005 A 
ATOM     22  C   UNK A   0     -33.260  -9.588  18.927  0.00  0.00    +0.000 A 
ATOM     23  C   UNK A   0     -32.247  -8.752  18.456  0.00  0.00    +0.000 A 
ATOM     24  C   UNK A   0     -31.550  -9.087  17.292  0.00  0.00    +0.000 A 
ATOM     25  C   UNK A   0     -31.871 -10.255  16.595  0.00  0.00    +0.005 A 
ENDBRANCH  19  20
BRANCH  19  26
ATOM     26  C   UNK A   0     -33.473 -12.099  14.815  0.00  0.00    -0.031 A 
ATOM     27  C   UNK A   0     -32.755 -12.758  13.796  0.00  0.00    +0.005 A 
ATOM     28  C   UNK A   0     -33.052 -12.518  12.452  0.00  0.00    +0.000 A 
ATOM     29  C   UNK A   0     -34.066 -11.621  12.106  0.00  0.00    +0.000 A 
ATOM     30  C   UNK A   0     -34.782 -10.960  13.106  0.00  0.00    +0.000 A 
ATOM     31  C   UNK A   0     -34.487 -11.195  14.452  0.00  0.00    +0.005 A 
ENDBRANCH  19  26
ENDBRANCH   2  19
TORSDOF 9
ENDMDL
MODEL 7
REMARK VINA RESULT:    -4.266      2.231      7.265
REMARK INTER + INTRA:          -9.675
REMARK INTER:                  -6.462
REMARK INTRA:                  -3.213
REMARK UNBOUND:                -3.414
REMARK  Name = 
REMARK  9 active torsions:
REMARK  status: ('A' for Active; 'I' for Inactive)
REMARK    1  A    between atoms: C_2  and  OXT_3
REMARK    2  A    between atoms: C_2  and  CA_4
REMARK    3  A    between atoms: CA_4  and  CB_5
REMARK    4  A    between atoms: CA_4  and  N_13
REMARK    5  A    between atoms: CB_5  and  CG_6
REMARK    6  A    between atoms: CZ_9  and  OH_10
REMARK    7  A    between atoms: C_14  and  C_16
REMARK    8  A    between atoms: C_16  and  C_17
REMARK    9  A    between atoms: C_16  and  C_23
REMARK                            x       y       z     vdW  Elec       q    Type
REMARK                         _______ _______ _______ _____ _____    ______ ____
ROOT
ATOM      1  N   TYR A   1     -32.740  -9.524  17.147  0.00  0.00    -0.301 N 
ATOM      2  C   UNK A   0     -33.138  -9.657  18.520  0.00  0.00    +0.225 C 
ATOM      3  O   UNK A   0     -34.343  -9.896  18.807  0.00  0.00    -0.275 OA
ATOM      4  H   TYR A   1     -31.742  -9.290  16.941  0.00  0.00    +0.150 HD
ENDROOT
BRANCH   1   5
ATOM      5  CA  TYR A   1     -33.595  -9.962  16.038  0.00  0.00    +0.186 C 
BRANCH   5   7
ATOM      6  O   TYR A   1     -34.629  -8.877  14.161  0.00  0.00    -0.249 OA
ATOM      7  C   TYR A   1     -34.164  -8.766  15.328  0.00  0.00    +0.326 C 
BRANCH   7   8
ATOM      8  OXT TYR A   1     -34.197  -7.532  15.971  0.00  0.00    -0.479 OA
ATOM      9  HXT TYR A   1     -33.917  -6.687  15.488  0.00  0.00    +0.295 HD
ENDBRANCH   7   8
ENDBRANCH   5   7
BRANCH   5  10
ATOM     10  CB  TYR A   1     -32.797 -10.838  15.055  0.00  0.00    +0.069 C 
BRANCH  10  11
ATOM     11  CG  TYR A   1     -32.132 -11.993  15.759  0.00  0.00    -0.045 A 
ATOM     12  CD1 TYR A   1     -30.838 -12.399  15.393  0.00  0.00    +0.007 A 
ATOM     13  CE1 TYR A   1     -30.198 -13.430  16.089  0.00  0.00    +0.045 A 
ATOM     14  CZ  TYR A   1     -30.838 -14.052  17.169  0.00  0.00    +0.117 A 
ATOM     15  CE2 TYR A   1     -32.126 -13.652  17.537  0.00  0.00    +0.045 A 
ATOM     16  CD2 TYR A   1     -32.773 -12.629  16.836  0.00  0.00    +0.007 A 
BRANCH  14  17
ATOM     17  OH  TYR A   1     -30.199 -15.062  17.885  0.00  0.00    -0.507 OA
ATOM     18  HH  TYR A   1     -30.718 -15.829  18.295  0.00  0.00    +0.292 HD
ENDBRANCH  14  17
ENDBRANCH  10  11
ENDBRANCH   5  10
ENDBRANCH   1   5
BRANCH   2  19
ATOM     19  C   UNK A   0     -32.116  -9.485  19.621  0.00  0.00    +0.135 C 
BRANCH  19  20
ATOM     20  C   UNK A   0     -30.822 -10.236  19.354  0.00  0.00    -0.031 A 
ATOM     21  C   UNK A   0     -29.962  -9.897  18.288  0.00  0.00    +0.005 A 
ATOM     22  C   UNK A   0     -28.762 -10.590  18.098  0.00  0.00    +0.000 A 
ATOM     23  C   UNK A   0     -28.400 -11.617  18.970  0.00  0.00    +0.000 A 
ATOM     24  C   UNK A   0     -29.232 -11.950  20.041  0.00  0.00    +0.000 A 
ATOM     25  C   UNK A   0     -30.433 -11.261  20.236  0.00  0.00    +0.005 A 
ENDBRANCH  19  20
BRANCH  19  26
ATOM     26  C   UNK A   0     -31.854  -8.019  19.921  0.00  0.00    -0.031 A 
ATOM     27  C   UNK A   0     -32.668  -7.004  19.377  0.00  0.00    +0.005 A 
ATOM     28  C   UNK A   0     -32.438  -5.663  19.697  0.00  0.00    +0.000 A 
ATOM     29  C   UNK A   0     -31.397  -5.317  20.562  0.00  0.00    +0.000 A 
ATOM     30  C   UNK A   0     -30.582  -6.312  21.105  0.00  0.00    +0.000 A 
ATOM     31  C   UNK A   0     -30.807  -7.655  20.786  0.00  0.00    +0.005 A 
ENDBRANCH  19  26
ENDBRANCH   2  19
TORSDOF 9
ENDMDL
MODEL 8
REMARK VINA RESULT:    -4.117      1.963      5.270
REMARK INTER + INTRA:          -9.457
REMARK INTER:                  -7.176
REMARK INTRA:                  -2.281
REMARK UNBOUND:                -3.414
REMARK  Name = 
REMARK  9 active torsions:
REMARK  status: ('A' for Active; 'I' for Inactive)
REMARK    1  A    between atoms: C_2  and  OXT_3
REMARK    2  A    between atoms: C_2  and  CA_4
REMARK    3  A    between atoms: CA_4  and  CB_5
REMARK    4  A    between atoms: CA_4  and  N_13
REMARK    5  A    between atoms: CB_5  and  CG_6
REMARK    6  A    between atoms: CZ_9  and  OH_10
REMARK    7  A    between atoms: C_14  and  C_16
REMARK    8  A    between atoms: C_16  and  C_17
REMARK    9  A    between atoms: C_16  and  C_23
REMARK                            x       y       z     vdW  Elec       q    Type
REMARK                         _______ _______ _______ _____ _____    ______ ____
ROOT
ATOM      1  N   TYR A   1     -29.541 -12.981  17.603  0.00  0.00    -0.301 N 
ATOM      2  C   UNK A   0     -29.161 -11.680  18.078  0.00  0.00    +0.225 C 
ATOM      3  O   UNK A   0     -28.994 -10.734  17.260  0.00  0.00    -0.275 OA
ATOM      4  H   TYR A   1     -29.637 -13.754  18.300  0.00  0.00    +0.150 HD
ENDROOT
BRANCH   1   5
ATOM      5  CA  TYR A   1     -30.053 -13.200  16.246  0.00  0.00    +0.186 C 
BRANCH   5   7
ATOM      6  O   TYR A   1     -29.883 -15.051  14.725  0.00  0.00    -0.249 OA
ATOM      7  C   TYR A   1     -29.317 -14.340  15.600  0.00  0.00    +0.326 C 
BRANCH   7   8
ATOM      8  OXT TYR A   1     -27.997 -14.600  15.954  0.00  0.00    -0.479 OA
ATOM      9  HXT TYR A   1     -27.539 -15.455  15.662  0.00  0.00    +0.295 HD
ENDBRANCH   7   8
ENDBRANCH   5   7
BRANCH   5  10
ATOM     10  CB  TYR A   1     -31.565 -13.489  16.280  0.00  0.00    +0.069 C 
BRANCH  10  11
ATOM     11  CG  TYR A   1     -32.373 -12.224  16.137  0.00  0.00    -0.045 A 
ATOM     12  CD1 TYR A   1     -33.588 -12.075  16.827  0.00  0.00    +0.007 A 
ATOM     13  CE1 TYR A   1     -34.304 -10.877  16.743  0.00  0.00    +0.045 A 
ATOM     14  CZ  TYR A   1     -33.804  -9.810  15.986  0.00  0.00    +0.117 A 
ATOM     15  CE2 TYR A   1     -32.596  -9.954  15.297  0.00  0.00    +0.045 A 
ATOM     16  CD2 TYR A   1     -31.882 -11.154  15.370  0.00  0.00    +0.007 A 
BRANCH  14  17
ATOM     17  OH  TYR A   1     -34.497  -8.604  15.916  0.00  0.00    -0.507 OA
ATOM     18  HH  TYR A   1     -34.382  -7.885  16.621  0.00  0.00    +0.292 HD
ENDBRANCH  14  17
ENDBRANCH  10  11
ENDBRANCH   5  10
ENDBRANCH   1   5
BRANCH   2  19
ATOM     19  C   UNK A   0     -28.938 -11.454  19.557  0.00  0.00    +0.135 C 
BRANCH  19  20
ATOM     20  C   UNK A   0     -30.231 -11.227  20.325  0.00  0.00    -0.031 A 
ATOM     21  C   UNK A   0     -30.315 -10.322  21.404  0.00  0.00    +0.005 A 
ATOM     22  C   UNK A   0     -31.532 -10.115  22.061  0.00  0.00    +0.000 A 
ATOM     23  C   UNK A   0     -32.677 -10.795  21.646  0.00  0.00    +0.000 A 
ATOM     24  C   UNK A   0     -32.612 -11.680  20.568  0.00  0.00    +0.000 A 
ATOM     25  C   UNK A   0     -31.399 -11.891  19.907  0.00  0.00    +0.005 A 
ENDBRANCH  19  20
BRANCH  19  26
ATOM     26  C   UNK A   0     -28.112 -12.567  20.178  0.00  0.00    -0.031 A 
ATOM     27  C   UNK A   0     -26.806 -12.847  19.728  0.00  0.00    +0.005 A 
ATOM     28  C   UNK A   0     -26.045 -13.847  20.338  0.00  0.00    +0.000 A 
ATOM     29  C   UNK A   0     -26.574 -14.579  21.404  0.00  0.00    +0.000 A 
ATOM     30  C   UNK A   0     -27.868 -14.314  21.857  0.00  0.00    +0.000 A 
ATOM     31  C   UNK A   0     -28.634 -13.315  21.248  0.00  0.00    +0.005 A 
ENDBRANCH  19  26
ENDBRANCH   2  19
TORSDOF 9
ENDMDL
MODEL 9
REMARK VINA RESULT:    -2.785      2.056      4.626
REMARK INTER + INTRA:          -7.501
REMARK INTER:                  -4.547
REMARK INTRA:                  -2.954
REMARK UNBOUND:                -3.414
REMARK  Name = 
REMARK  9 active torsions:
REMARK  status: ('A' for Active; 'I' for Inactive)
REMARK    1  A    between atoms: C_2  and  OXT_3
REMARK    2  A    between atoms: C_2  and  CA_4
REMARK    3  A    between atoms: CA_4  and  CB_5
REMARK    4  A    between atoms: CA_4  and  N_13
REMARK    5  A    between atoms: CB_5  and  CG_6
REMARK    6  A    between atoms: CZ_9  and  OH_10
REMARK    7  A    between atoms: C_14  and  C_16
REMARK    8  A    between atoms: C_16  and  C_17
REMARK    9  A    between atoms: C_16  and  C_23
REMARK                            x       y       z     vdW  Elec       q    Type
REMARK                         _______ _______ _______ _____ _____    ______ ____
ROOT
ATOM      1  N   TYR A   1     -32.373  -9.650  18.282  0.00  0.00    -0.301 N 
ATOM      2  C   UNK A   0     -32.243 -10.018  16.900  0.00  0.00    +0.225 C 
ATOM      3  O   UNK A   0     -31.561  -9.301  16.118  0.00  0.00    -0.275 OA
ATOM      4  H   TYR A   1     -32.973 -10.243  18.898  0.00  0.00    +0.150 HD
ENDROOT
BRANCH   1   5
ATOM      5  CA  TYR A   1     -31.499  -8.653  18.912  0.00  0.00    +0.186 C 
BRANCH   5   7
ATOM      6  O   TYR A   1     -32.171  -6.995  20.515  0.00  0.00    -0.249 OA
ATOM      7  C   TYR A   1     -32.312  -7.468  19.354  0.00  0.00    +0.326 C 
BRANCH   7   8
ATOM      8  OXT TYR A   1     -33.209  -6.877  18.470  0.00  0.00    -0.479 OA
ATOM      9  HXT TYR A   1     -33.552  -7.384  17.662  0.00  0.00    +0.295 HD
ENDBRANCH   7   8
ENDBRANCH   5   7
BRANCH   5  10
ATOM     10  CB  TYR A   1     -30.755  -9.269  20.110  0.00  0.00    +0.069 C 
BRANCH  10  11
ATOM     11  CG  TYR A   1     -29.968 -10.489  19.704  0.00  0.00    -0.045 A 
ATOM     12  CD1 TYR A   1     -29.034 -10.417  18.657  0.00  0.00    +0.007 A 
ATOM     13  CE1 TYR A   1     -28.261 -11.533  18.324  0.00  0.00    +0.045 A 
ATOM     14  CZ  TYR A   1     -28.398 -12.726  19.046  0.00  0.00    +0.117 A 
ATOM     15  CE2 TYR A   1     -29.327 -12.803  20.088  0.00  0.00    +0.045 A 
ATOM     16  CD2 TYR A   1     -30.110 -11.691  20.417  0.00  0.00    +0.007 A 
BRANCH  14  17
ATOM     17  OH  TYR A   1     -27.615 -13.836  18.738  0.00  0.00    -0.507 OA
ATOM     18  HH  TYR A   1     -26.655 -13.910  19.054  0.00  0.00    +0.292 HD
ENDBRANCH  14  17
ENDBRANCH  10  11
ENDBRANCH   5  10
ENDBRANCH   1   5
BRANCH   2  19
ATOM     19  C   UNK A   0     -32.944 -11.254  16.381  0.00  0.00    +0.135 C 
BRANCH  19  20
ATOM     20  C   UNK A   0     -33.655 -11.022  15.057  0.00  0.00    -0.031 A 
ATOM     21  C   UNK A   0     -33.679 -11.996  14.036  0.00  0.00    +0.005 A 
ATOM     22  C   UNK A   0     -34.375 -11.758  12.847  0.00  0.00    +0.000 A 
ATOM     23  C   UNK A   0     -35.063 -10.557  12.665  0.00  0.00    +0.000 A 
ATOM     24  C   UNK A   0     -35.062  -9.593  13.675  0.00  0.00    +0.000 A 
ATOM     25  C   UNK A   0     -34.368  -9.825  14.866  0.00  0.00    +0.005 A 
ENDBRANCH  19  20
BRANCH  19  26
ATOM     26  C   UNK A   0     -32.002 -12.443  16.304  0.00  0.00    -0.031 A 
ATOM     27  C   UNK A   0     -30.926 -12.468  15.394  0.00  0.00    +0.005 A 
ATOM     28  C   UNK A   0     -30.046 -13.553  15.367  0.00  0.00    +0.000 A 
ATOM     29  C   UNK A   0     -30.224 -14.624  16.246  0.00  0.00    +0.000 A 
ATOM     30  C   UNK A   0     -31.288 -14.613  17.150  0.00  0.00    +0.000 A 
ATOM     31  C   UNK A   0     -32.173 -13.531  17.179  0.00  0.00    +0.005 A 
ENDBRANCH  19  26
ENDBRANCH   2  19
TORSDOF 9
ENDMDL
