MODEL 1
REMARK VINA RESULT:    -5.658      0.000      0.000
REMARK INTER + INTRA:         -11.721
REMARK INTER:                  -8.304
REMARK INTRA:                  -3.417
REMARK UNBOUND:                -3.417
REMARK  Name = 
REMARK  9 active torsions:
REMARK  status: ('A' for Active; 'I' for Inactive)
REMARK    1  A    between atoms: C_2  and  OXT_3
REMARK    2  A    between atoms: C_2  and  CA_4
REMARK    3  A    between atoms: CA_4  and  CB_5
REMARK    4  A    between atoms: CA_4  and  N_13
REMARK    5  A    between atoms: CB_5  and  CG_6
REMARK    6  A    between atoms: CZ_9  and  OH_10
REMARK    7  A    between atoms: C_14  and  C_16
REMARK    8  A    between atoms: C_16  and  C_17
REMARK    9  A    between atoms: C_16  and  C_23
REMARK                            x       y       z     vdW  Elec       q    Type
REMARK                         _______ _______ _______ _____ _____    ______ ____
ROOT
ATOM      1  N   TYR A   1     -29.598 -12.576  17.832  0.00  0.00    -0.301 N 
ATOM      2  C   UNK A   0     -30.445 -13.693  17.522  0.00  0.00    +0.225 C 
ATOM      3  O   UNK A   0     -30.505 -14.677  18.310  0.00  0.00    -0.275 OA
ATOM      4  H   TYR A   1     -29.541 -11.791  17.143  0.00  0.00    +0.150 HD
ENDROOT
BRANCH   1   5
ATOM      5  CA  TYR A   1     -29.033 -12.369  19.171  0.00  0.00    +0.186 C 
BRANCH   5   7
ATOM      6  O   TYR A   1     -26.710 -11.767  19.087  0.00  0.00    -0.249 OA
ATOM      7  C   TYR A   1     -27.565 -12.691  19.161  0.00  0.00    +0.326 C 
BRANCH   7   8
ATOM      8  OXT TYR A   1     -27.147 -14.015  19.254  0.00  0.00    -0.479 OA
ATOM      9  HXT TYR A   1     -26.877 -14.534  18.427  0.00  0.00    +0.295 HD
ENDBRANCH   7   8
ENDBRANCH   5   7
BRANCH   5  10
ATOM     10  CB  TYR A   1     -29.261 -10.919  19.634  0.00  0.00    +0.069 C 
BRANCH  10  11
ATOM     11  CG  TYR A   1     -30.713 -10.529  19.538  0.00  0.00    -0.045 A 
ATOM     12  CD1 TYR A   1     -31.708 -11.352  20.093  0.00  0.00    +0.007 A 
ATOM     13  CE1 TYR A   1     -33.050 -10.958  20.059  0.00  0.00    +0.045 A 
ATOM     14  CZ  TYR A   1     -33.408  -9.730  19.488  0.00  0.00    +0.117 A 
ATOM     15  CE2 TYR A   1     -32.422  -8.909  18.934  0.00  0.00    +0.045 A 
ATOM     16  CD2 TYR A   1     -31.081  -9.304  18.957  0.00  0.00    +0.007 A 
BRANCH  14  17
ATOM     17  OH  TYR A   1     -34.738  -9.317  19.471  0.00  0.00    -0.507 OA
ATOM     18  HH  TYR A   1     -34.989  -8.342  19.361  0.00  0.00    +0.292 HD
ENDBRANCH  14  17
ENDBRANCH  10  11
ENDBRANCH   5  10
ENDBRANCH   1   5
BRANCH   2  19
ATOM     19  C   UNK A   0     -31.246 -13.698  16.238  0.00  0.00    +0.135 C 
BRANCH  19  20
ATOM     20  C   UNK A   0     -31.995 -12.397  15.999  0.00  0.00    -0.031 A 
ATOM     21  C   UNK A   0     -31.358 -11.247  15.484  0.00  0.00    +0.005 A 
ATOM     22  C   UNK A   0     -32.091 -10.081  15.244  0.00  0.00    +0.000 A 
ATOM     23  C   UNK A   0     -33.462 -10.048  15.501  0.00  0.00    +0.000 A 
ATOM     24  C   UNK A   0     -34.107 -11.185  15.993  0.00  0.00    +0.000 A 
ATOM     25  C   UNK A   0     -33.381 -12.354  16.235  0.00  0.00    +0.005 A 
ENDBRANCH  19  20
BRANCH  19  26
ATOM     26  C   UNK A   0     -30.386 -14.072  15.042  0.00  0.00    -0.031 A 
ATOM     27  C   UNK A   0     -29.063 -14.529  15.206  0.00  0.00    +0.005 A 
ATOM     28  C   UNK A   0     -28.302 -14.907  14.097  0.00  0.00    +0.000 A 
ATOM     29  C   UNK A   0     -28.849 -14.838  12.814  0.00  0.00    +0.000 A 
ATOM     30  C   UNK A   0     -30.158 -14.384  12.638  0.00  0.00    +0.000 A 
ATOM     31  C   UNK A   0     -30.923 -14.002  13.744  0.00  0.00    +0.005 A 
ENDBRANCH  19  26
ENDBRANCH   2  19
TORSDOF 9
ENDMDL
MODEL 2
REMARK VINA RESULT:    -5.340      1.961      5.140
REMARK INTER + INTRA:         -11.255
REMARK INTER:                  -8.006
REMARK INTRA:                  -3.248
REMARK UNBOUND:                -3.417
REMARK  Name = 
REMARK  9 active torsions:
REMARK  status: ('A' for Active; 'I' for Inactive)
REMARK    1  A    between atoms: C_2  and  OXT_3
REMARK    2  A    between atoms: C_2  and  CA_4
REMARK    3  A    between atoms: CA_4  and  CB_5
REMARK    4  A    between atoms: CA_4  and  N_13
REMARK    5  A    between atoms: CB_5  and  CG_6
REMARK    6  A    between atoms: CZ_9  and  OH_10
REMARK    7  A    between atoms: C_14  and  C_16
REMARK    8  A    between atoms: C_16  and  C_17
REMARK    9  A    between atoms: C_16  and  C_23
REMARK                            x       y       z     vdW  Elec       q    Type
REMARK                         _______ _______ _______ _____ _____    ______ ____
ROOT
ATOM      1  N   TYR A   1     -31.789  -9.996  17.572  0.00  0.00    -0.301 N 
ATOM      2  C   UNK A   0     -31.080  -9.996  16.323  0.00  0.00    +0.225 C 
ATOM      3  O   UNK A   0     -30.275  -9.062  16.055  0.00  0.00    -0.275 OA
ATOM      4  H   TYR A   1     -32.475 -10.764  17.752  0.00  0.00    +0.150 HD
ENDROOT
BRANCH   1   5
ATOM      5  CA  TYR A   1     -31.399  -9.134  18.694  0.00  0.00    +0.186 C 
BRANCH   5   7
ATOM      6  O   TYR A   1     -32.502  -7.443  19.994  0.00  0.00    -0.249 OA
ATOM      7  C   TYR A   1     -32.432  -8.061  18.897  0.00  0.00    +0.326 C 
BRANCH   7   8
ATOM      8  OXT TYR A   1     -33.302  -7.735  17.861  0.00  0.00    -0.479 OA
ATOM      9  HXT TYR A   1     -34.008  -8.392  17.550  0.00  0.00    +0.295 HD
ENDBRANCH   7   8
ENDBRANCH   5   7
BRANCH   5  10
ATOM     10  CB  TYR A   1     -31.230  -9.965  19.979  0.00  0.00    +0.069 C 
BRANCH  10  11
ATOM     11  CG  TYR A   1     -30.159 -11.014  19.821  0.00  0.00    -0.045 A 
ATOM     12  CD1 TYR A   1     -30.270 -12.248  20.484  0.00  0.00    +0.007 A 
ATOM     13  CE1 TYR A   1     -29.308 -13.244  20.287  0.00  0.00    +0.045 A 
ATOM     14  CZ  TYR A   1     -28.236 -13.024  19.412  0.00  0.00    +0.117 A 
ATOM     15  CE2 TYR A   1     -28.121 -11.797  18.751  0.00  0.00    +0.045 A 
ATOM     16  CD2 TYR A   1     -29.076 -10.795  18.954  0.00  0.00    +0.007 A 
BRANCH  14  17
ATOM     17  OH  TYR A   1     -27.286 -14.018  19.190  0.00  0.00    -0.507 OA
ATOM     18  HH  TYR A   1     -27.525 -14.883  18.720  0.00  0.00    +0.292 HD
ENDBRANCH  14  17
ENDBRANCH  10  11
ENDBRANCH   5  10
ENDBRANCH   1   5
BRANCH   2  19
ATOM     19  C   UNK A   0     -31.317 -11.105  15.322  0.00  0.00    +0.135 C 
BRANCH  19  20
ATOM     20  C   UNK A   0     -31.182 -12.493  15.928  0.00  0.00    -0.031 A 
ATOM     21  C   UNK A   0     -30.109 -13.351  15.608  0.00  0.00    +0.005 A 
ATOM     22  C   UNK A   0     -30.001 -14.606  16.216  0.00  0.00    +0.000 A 
ATOM     23  C   UNK A   0     -30.949 -15.015  17.154  0.00  0.00    +0.000 A 
ATOM     24  C   UNK A   0     -32.006 -14.167  17.493  0.00  0.00    +0.000 A 
ATOM     25  C   UNK A   0     -32.119 -12.912  16.890  0.00  0.00    +0.005 A 
ENDBRANCH  19  20
BRANCH  19  26
ATOM     26  C   UNK A   0     -32.646 -10.939  14.606  0.00  0.00    -0.031 A 
ATOM     27  C   UNK A   0     -33.527  -9.889  14.932  0.00  0.00    +0.005 A 
ATOM     28  C   UNK A   0     -34.727  -9.728  14.233  0.00  0.00    +0.000 A 
ATOM     29  C   UNK A   0     -35.062 -10.609  13.202  0.00  0.00    +0.000 A 
ATOM     30  C   UNK A   0     -34.200 -11.656  12.872  0.00  0.00    +0.000 A 
ATOM     31  C   UNK A   0     -32.999 -11.822  13.569  0.00  0.00    +0.005 A 
ENDBRANCH  19  26
ENDBRANCH   2  19
TORSDOF 9
ENDMDL
MODEL 3
REMARK VINA RESULT:    -5.133      2.442      5.548
REMARK INTER + INTRA:         -10.951
REMARK INTER:                  -7.927
REMARK INTRA:                  -3.025
REMARK UNBOUND:                -3.417
REMARK  Name = 
REMARK  9 active torsions:
REMARK  status: ('A' for Active; 'I' for Inactive)
REMARK    1  A    between atoms: C_2  and  OXT_3
REMARK    2  A    between atoms: C_2  and  CA_4
REMARK    3  A    between atoms: CA_4  and  CB_5
REMARK    4  A    between atoms: CA_4  and  N_13
REMARK    5  A    between atoms: CB_5  and  CG_6
REMARK    6  A    between atoms: CZ_9  and  OH_10
REMARK    7  A    between atoms: C_14  and  C_16
REMARK    8  A    between atoms: C_16  and  C_17
REMARK    9  A    between atoms: C_16  and  C_23
REMARK                            x       y       z     vdW  Elec       q    Type
REMARK                         _______ _______ _______ _____ _____    ______ ____
ROOT
ATOM      1  N   TYR A   1     -29.944 -10.139  19.137  0.00  0.00    -0.301 N 
ATOM      2  C   UNK A   0     -29.288 -11.193  19.859  0.00  0.00    +0.225 C 
ATOM      3  O   UNK A   0     -29.432 -11.284  21.109  0.00  0.00    -0.275 OA
ATOM      4  H   TYR A   1     -29.777 -10.067  18.107  0.00  0.00    +0.150 HD
ENDROOT
BRANCH   1   5
ATOM      5  CA  TYR A   1     -31.028  -9.344  19.724  0.00  0.00    +0.186 C 
BRANCH   5   7
ATOM      6  O   TYR A   1     -30.418  -7.061  20.152  0.00  0.00    -0.249 OA
ATOM      7  C   TYR A   1     -30.452  -8.248  20.577  0.00  0.00    +0.326 C 
BRANCH   7   8
ATOM      8  OXT TYR A   1     -29.974  -8.541  21.850  0.00  0.00    -0.479 OA
ATOM      9  HXT TYR A   1     -29.072  -8.198  22.158  0.00  0.00    +0.295 HD
ENDBRANCH   7   8
ENDBRANCH   5   7
BRANCH   5  10
ATOM     10  CB  TYR A   1     -31.921  -8.751  18.620  0.00  0.00    +0.069 C 
BRANCH  10  11
ATOM     11  CG  TYR A   1     -32.160  -9.742  17.510  0.00  0.00    -0.045 A 
ATOM     12  CD1 TYR A   1     -33.286 -10.582  17.538  0.00  0.00    +0.007 A 
ATOM     13  CE1 TYR A   1     -33.539 -11.457  16.476  0.00  0.00    +0.045 A 
ATOM     14  CZ  TYR A   1     -32.682 -11.488  15.369  0.00  0.00    +0.117 A 
ATOM     15  CE2 TYR A   1     -31.559 -10.655  15.338  0.00  0.00    +0.045 A 
ATOM     16  CD2 TYR A   1     -31.297  -9.786  16.402  0.00  0.00    +0.007 A 
BRANCH  14  17
ATOM     17  OH  TYR A   1     -32.939 -12.338  14.296  0.00  0.00    -0.507 OA
ATOM     18  HH  TYR A   1     -32.206 -12.621  13.657  0.00  0.00    +0.292 HD
ENDBRANCH  14  17
ENDBRANCH  10  11
ENDBRANCH   5  10
ENDBRANCH   1   5
BRANCH   2  19
ATOM     19  C   UNK A   0     -28.407 -12.177  19.122  0.00  0.00    +0.135 C 
BRANCH  19  20
ATOM     20  C   UNK A   0     -27.549 -13.020  20.052  0.00  0.00    -0.031 A 
ATOM     21  C   UNK A   0     -28.107 -13.799  21.089  0.00  0.00    +0.005 A 
ATOM     22  C   UNK A   0     -27.287 -14.589  21.900  0.00  0.00    +0.000 A 
ATOM     23  C   UNK A   0     -25.908 -14.623  21.682  0.00  0.00    +0.000 A 
ATOM     24  C   UNK A   0     -25.346 -13.871  20.648  0.00  0.00    +0.000 A 
ATOM     25  C   UNK A   0     -26.161 -13.080  19.834  0.00  0.00    +0.005 A 
ENDBRANCH  19  20
BRANCH  19  26
ATOM     26  C   UNK A   0     -29.210 -13.045  18.169  0.00  0.00    -0.031 A 
ATOM     27  C   UNK A   0     -30.485 -13.532  18.521  0.00  0.00    +0.005 A 
ATOM     28  C   UNK A   0     -31.227 -14.295  17.614  0.00  0.00    +0.000 A 
ATOM     29  C   UNK A   0     -30.710 -14.580  16.348  0.00  0.00    +0.000 A 
ATOM     30  C   UNK A   0     -29.447 -14.106  15.989  0.00  0.00    +0.000 A 
ATOM     31  C   UNK A   0     -28.700 -13.344  16.893  0.00  0.00    +0.005 A 
ENDBRANCH  19  26
ENDBRANCH   2  19
TORSDOF 9
ENDMDL
MODEL 4
REMARK VINA RESULT:    -5.039      2.045      4.609
REMARK INTER + INTRA:         -10.813
REMARK INTER:                  -7.955
REMARK INTRA:                  -2.857
REMARK UNBOUND:                -3.417
REMARK  Name = 
REMARK  9 active torsions:
REMARK  status: ('A' for Active; 'I' for Inactive)
REMARK    1  A    between atoms: C_2  and  OXT_3
REMARK    2  A    between atoms: C_2  and  CA_4
REMARK    3  A    between atoms: CA_4  and  CB_5
REMARK    4  A    between atoms: CA_4  and  N_13
REMARK    5  A    between atoms: CB_5  and  CG_6
REMARK    6  A    between atoms: CZ_9  and  OH_10
REMARK    7  A    between atoms: C_14  and  C_16
REMARK    8  A    between atoms: C_16  and  C_17
REMARK    9  A    between atoms: C_16  and  C_23
REMARK                            x       y       z     vdW  Elec       q    Type
REMARK                         _______ _______ _______ _____ _____    ______ ____
ROOT
ATOM      1  N   TYR A   1     -32.466  -9.764  18.200  0.00  0.00    -0.301 N 
ATOM      2  C   UNK A   0     -32.275 -10.122  16.823  0.00  0.00    +0.225 C 
ATOM      3  O   UNK A   0     -31.572  -9.389  16.073  0.00  0.00    -0.275 OA
ATOM      4  H   TYR A   1     -33.083 -10.371  18.788  0.00  0.00    +0.150 HD
ENDROOT
BRANCH   1   5
ATOM      5  CA  TYR A   1     -31.634  -8.759  18.872  0.00  0.00    +0.186 C 
BRANCH   5   7
ATOM      6  O   TYR A   1     -32.530  -7.262  20.522  0.00  0.00    -0.249 OA
ATOM      7  C   TYR A   1     -32.486  -7.600  19.308  0.00  0.00    +0.326 C 
BRANCH   7   8
ATOM      8  OXT TYR A   1     -33.214  -6.883  18.363  0.00  0.00    -0.479 OA
ATOM      9  HXT TYR A   1     -34.045  -7.278  17.939  0.00  0.00    +0.295 HD
ENDBRANCH   7   8
ENDBRANCH   5   7
BRANCH   5  10
ATOM     10  CB  TYR A   1     -30.911  -9.378  20.081  0.00  0.00    +0.069 C 
BRANCH  10  11
ATOM     11  CG  TYR A   1     -30.080 -10.569  19.678  0.00  0.00    -0.045 A 
ATOM     12  CD1 TYR A   1     -29.108 -10.449  18.670  0.00  0.00    +0.007 A 
ATOM     13  CE1 TYR A   1     -28.295 -11.539  18.342  0.00  0.00    +0.045 A 
ATOM     14  CZ  TYR A   1     -28.431 -12.751  19.030  0.00  0.00    +0.117 A 
ATOM     15  CE2 TYR A   1     -29.397 -12.876  20.032  0.00  0.00    +0.045 A 
ATOM     16  CD2 TYR A   1     -30.220 -11.791  20.356  0.00  0.00    +0.007 A 
BRANCH  14  17
ATOM     17  OH  TYR A   1     -27.609 -13.834  18.727  0.00  0.00    -0.507 OA
ATOM     18  HH  TYR A   1     -26.606 -13.791  18.859  0.00  0.00    +0.292 HD
ENDBRANCH  14  17
ENDBRANCH  10  11
ENDBRANCH   5  10
ENDBRANCH   1   5
BRANCH   2  19
ATOM     19  C   UNK A   0     -32.935 -11.364  16.268  0.00  0.00    +0.135 C 
BRANCH  19  20
ATOM     20  C   UNK A   0     -33.632 -11.124  14.938  0.00  0.00    -0.031 A 
ATOM     21  C   UNK A   0     -33.608 -12.074  13.895  0.00  0.00    +0.005 A 
ATOM     22  C   UNK A   0     -34.292 -11.830  12.700  0.00  0.00    +0.000 A 
ATOM     23  C   UNK A   0     -35.015 -10.648  12.535  0.00  0.00    +0.000 A 
ATOM     24  C   UNK A   0     -35.062  -9.708  13.566  0.00  0.00    +0.000 A 
ATOM     25  C   UNK A   0     -34.381  -9.946  14.763  0.00  0.00    +0.005 A 
ENDBRANCH  19  20
BRANCH  19  26
ATOM     26  C   UNK A   0     -31.962 -12.527  16.182  0.00  0.00    -0.031 A 
ATOM     27  C   UNK A   0     -30.926 -12.546  15.227  0.00  0.00    +0.005 A 
ATOM     28  C   UNK A   0     -30.014 -13.604  15.190  0.00  0.00    +0.000 A 
ATOM     29  C   UNK A   0     -30.122 -14.655  16.104  0.00  0.00    +0.000 A 
ATOM     30  C   UNK A   0     -31.146 -14.650  17.054  0.00  0.00    +0.000 A 
ATOM     31  C   UNK A   0     -32.062 -13.594  17.093  0.00  0.00    +0.005 A 
ENDBRANCH  19  26
ENDBRANCH   2  19
TORSDOF 9
ENDMDL
MODEL 5
REMARK VINA RESULT:    -4.410      2.368      4.994
REMARK INTER + INTRA:          -9.889
REMARK INTER:                  -7.068
REMARK INTRA:                  -2.821
REMARK UNBOUND:                -3.417
REMARK  Name = 
REMARK  9 active torsions:
REMARK  status: ('A' for Active; 'I' for Inactive)
REMARK    1  A    between atoms: C_2  and  OXT_3
REMARK    2  A    between atoms: C_2  and  CA_4
REMARK    3  A    between atoms: CA_4  and  CB_5
REMARK    4  A    between atoms: CA_4  and  N_13
REMARK    5  A    between atoms: CB_5  and  CG_6
REMARK    6  A    between atoms: CZ_9  and  OH_10
REMARK    7  A    between atoms: C_14  and  C_16
REMARK    8  A    between atoms: C_16  and  C_17
REMARK    9  A    between atoms: C_16  and  C_23
REMARK                            x       y       z     vdW  Elec       q    Type
REMARK                         _______ _______ _______ _____ _____    ______ ____
ROOT
ATOM      1  N   TYR A   1     -30.318 -10.896  19.292  0.00  0.00    -0.301 N 
ATOM      2  C   UNK A   0     -30.325 -12.006  20.204  0.00  0.00    +0.225 C 
ATOM      3  O   UNK A   0     -30.786 -11.861  21.370  0.00  0.00    -0.275 OA
ATOM      4  H   TYR A   1     -29.897 -11.036  18.345  0.00  0.00    +0.150 HD
ENDROOT
BRANCH   1   5
ATOM      5  CA  TYR A   1     -31.104  -9.680  19.532  0.00  0.00    +0.186 C 
BRANCH   5   7
ATOM      6  O   TYR A   1     -30.212  -7.553  20.202  0.00  0.00    -0.249 OA
ATOM      7  C   TYR A   1     -30.366  -8.774  20.478  0.00  0.00    +0.326 C 
BRANCH   7   8
ATOM      8  OXT TYR A   1     -29.870  -9.282  21.675  0.00  0.00    -0.479 OA
ATOM      9  HXT TYR A   1     -30.343 -10.039  22.154  0.00  0.00    +0.295 HD
ENDBRANCH   7   8
ENDBRANCH   5   7
BRANCH   5  10
ATOM     10  CB  TYR A   1     -31.389  -8.952  18.206  0.00  0.00    +0.069 C 
BRANCH  10  11
ATOM     11  CG  TYR A   1     -31.992  -9.882  17.184  0.00  0.00    -0.045 A 
ATOM     12  CD1 TYR A   1     -33.229 -10.503  17.430  0.00  0.00    +0.007 A 
ATOM     13  CE1 TYR A   1     -33.816 -11.314  16.455  0.00  0.00    +0.045 A 
ATOM     14  CZ  TYR A   1     -33.185 -11.498  15.218  0.00  0.00    +0.117 A 
ATOM     15  CE2 TYR A   1     -31.955 -10.883  14.969  0.00  0.00    +0.045 A 
ATOM     16  CD2 TYR A   1     -31.359 -10.079  15.946  0.00  0.00    +0.007 A 
BRANCH  14  17
ATOM     17  OH  TYR A   1     -33.775 -12.284  14.231  0.00  0.00    -0.507 OA
ATOM     18  HH  TYR A   1     -33.311 -13.105  13.860  0.00  0.00    +0.292 HD
ENDBRANCH  14  17
ENDBRANCH  10  11
ENDBRANCH   5  10
ENDBRANCH   1   5
BRANCH   2  19
ATOM     19  C   UNK A   0     -29.759 -13.340  19.772  0.00  0.00    +0.135 C 
BRANCH  19  20
ATOM     20  C   UNK A   0     -30.011 -13.646  18.304  0.00  0.00    -0.031 A 
ATOM     21  C   UNK A   0     -29.011 -13.492  17.321  0.00  0.00    +0.005 A 
ATOM     22  C   UNK A   0     -29.273 -13.819  15.987  0.00  0.00    +0.000 A 
ATOM     23  C   UNK A   0     -30.525 -14.314  15.619  0.00  0.00    +0.000 A 
ATOM     24  C   UNK A   0     -31.518 -14.489  16.586  0.00  0.00    +0.000 A 
ATOM     25  C   UNK A   0     -31.262 -14.164  17.920  0.00  0.00    +0.005 A 
ENDBRANCH  19  20
BRANCH  19  26
ATOM     26  C   UNK A   0     -28.285 -13.463  20.119  0.00  0.00    -0.031 A 
ATOM     27  C   UNK A   0     -27.830 -14.418  21.050  0.00  0.00    +0.005 A 
ATOM     28  C   UNK A   0     -26.465 -14.544  21.326  0.00  0.00    +0.000 A 
ATOM     29  C   UNK A   0     -25.539 -13.723  20.677  0.00  0.00    +0.000 A 
ATOM     30  C   UNK A   0     -25.978 -12.771  19.755  0.00  0.00    +0.000 A 
ATOM     31  C   UNK A   0     -27.342 -12.639  19.477  0.00  0.00    +0.005 A 
ENDBRANCH  19  26
ENDBRANCH   2  19
TORSDOF 9
ENDMDL
MODEL 6
REMARK VINA RESULT:    -4.312      1.929      6.049
REMARK INTER + INTRA:          -9.746
REMARK INTER:                  -7.111
REMARK INTRA:                  -2.635
REMARK UNBOUND:                -3.417
REMARK  Name = 
REMARK  9 active torsions:
REMARK  status: ('A' for Active; 'I' for Inactive)
REMARK    1  A    between atoms: C_2  and  OXT_3
REMARK    2  A    between atoms: C_2  and  CA_4
REMARK    3  A    between atoms: CA_4  and  CB_5
REMARK    4  A    between atoms: CA_4  and  N_13
REMARK    5  A    between atoms: CB_5  and  CG_6
REMARK    6  A    between atoms: CZ_9  and  OH_10
REMARK    7  A    between atoms: C_14  and  C_16
REMARK    8  A    between atoms: C_16  and  C_17
REMARK    9  A    between atoms: C_16  and  C_23
REMARK                            x       y       z     vdW  Elec       q    Type
REMARK                         _______ _______ _______ _____ _____    ______ ____
ROOT
ATOM      1  N   TYR A   1     -30.286 -13.513  16.856  0.00  0.00    -0.301 N 
ATOM      2  C   UNK A   0     -29.212 -13.222  17.764  0.00  0.00    +0.225 C 
ATOM      3  O   UNK A   0     -28.052 -13.004  17.318  0.00  0.00    -0.275 OA
ATOM      4  H   TYR A   1     -31.228 -13.725  17.256  0.00  0.00    +0.150 HD
ENDROOT
BRANCH   1   5
ATOM      5  CA  TYR A   1     -30.183 -13.262  15.414  0.00  0.00    +0.186 C 
BRANCH   5   7
ATOM      6  O   TYR A   1     -30.300 -15.062  13.829  0.00  0.00    -0.249 OA
ATOM      7  C   TYR A   1     -29.630 -14.477  14.723  0.00  0.00    +0.326 C 
BRANCH   7   8
ATOM      8  OXT TYR A   1     -28.363 -14.946  15.057  0.00  0.00    -0.479 OA
ATOM      9  HXT TYR A   1     -28.216 -15.491  15.898  0.00  0.00    +0.295 HD
ENDBRANCH   7   8
ENDBRANCH   5   7
BRANCH   5  10
ATOM     10  CB  TYR A   1     -31.559 -12.893  14.831  0.00  0.00    +0.069 C 
BRANCH  10  11
ATOM     11  CG  TYR A   1     -32.229 -11.811  15.637  0.00  0.00    -0.045 A 
ATOM     12  CD1 TYR A   1     -33.380 -12.095  16.391  0.00  0.00    +0.007 A 
ATOM     13  CE1 TYR A   1     -33.963 -11.105  17.188  0.00  0.00    +0.045 A 
ATOM     14  CZ  TYR A   1     -33.392  -9.828  17.256  0.00  0.00    +0.117 A 
ATOM     15  CE2 TYR A   1     -32.247  -9.540  16.507  0.00  0.00    +0.045 A 
ATOM     16  CD2 TYR A   1     -31.667 -10.525  15.700  0.00  0.00    +0.007 A 
BRANCH  14  17
ATOM     17  OH  TYR A   1     -33.951  -8.842  18.066  0.00  0.00    -0.507 OA
ATOM     18  HH  TYR A   1     -33.784  -8.821  19.065  0.00  0.00    +0.292 HD
ENDBRANCH  14  17
ENDBRANCH  10  11
ENDBRANCH   5  10
ENDBRANCH   1   5
BRANCH   2  19
ATOM     19  C   UNK A   0     -29.469 -13.203  19.254  0.00  0.00    +0.135 C 
BRANCH  19  20
ATOM     20  C   UNK A   0     -28.228 -13.512  20.076  0.00  0.00    -0.031 A 
ATOM     21  C   UNK A   0     -28.301 -14.105  21.354  0.00  0.00    +0.005 A 
ATOM     22  C   UNK A   0     -27.134 -14.407  22.062  0.00  0.00    +0.000 A 
ATOM     23  C   UNK A   0     -25.885 -14.135  21.504  0.00  0.00    +0.000 A 
ATOM     24  C   UNK A   0     -25.798 -13.565  20.232  0.00  0.00    +0.000 A 
ATOM     25  C   UNK A   0     -26.961 -13.261  19.519  0.00  0.00    +0.005 A 
ENDBRANCH  19  20
BRANCH  19  26
ATOM     26  C   UNK A   0     -30.116 -11.901  19.695  0.00  0.00    -0.031 A 
ATOM     27  C   UNK A   0     -29.584 -10.653  19.314  0.00  0.00    +0.005 A 
ATOM     28  C   UNK A   0     -30.217  -9.467  19.695  0.00  0.00    +0.000 A 
ATOM     29  C   UNK A   0     -31.387  -9.509  20.456  0.00  0.00    +0.000 A 
ATOM     30  C   UNK A   0     -31.923 -10.739  20.843  0.00  0.00    +0.000 A 
ATOM     31  C   UNK A   0     -31.292 -11.929  20.466  0.00  0.00    +0.005 A 
ENDBRANCH  19  26
ENDBRANCH   2  19
TORSDOF 9
ENDMDL
MODEL 7
REMARK VINA RESULT:    -4.290      2.187      3.939
REMARK INTER + INTRA:          -9.714
REMARK INTER:                  -6.428
REMARK INTRA:                  -3.285
REMARK UNBOUND:                -3.417
REMARK  Name = 
REMARK  9 active torsions:
REMARK  status: ('A' for Active; 'I' for Inactive)
REMARK    1  A    between atoms: C_2  and  OXT_3
REMARK    2  A    between atoms: C_2  and  CA_4
REMARK    3  A    between atoms: CA_4  and  CB_5
REMARK    4  A    between atoms: CA_4  and  N_13
REMARK    5  A    between atoms: CB_5  and  CG_6
REMARK    6  A    between atoms: CZ_9  and  OH_10
REMARK    7  A    between atoms: C_14  and  C_16
REMARK    8  A    between atoms: C_16  and  C_17
REMARK    9  A    between atoms: C_16  and  C_23
REMARK                            x       y       z     vdW  Elec       q    Type
REMARK                         _______ _______ _______ _____ _____    ______ ____
ROOT
ATOM      1  N   TYR A   1     -30.749 -13.141  16.072  0.00  0.00    -0.301 N 
ATOM      2  C   UNK A   0     -32.112 -13.441  16.411  0.00  0.00    +0.225 C 
ATOM      3  O   UNK A   0     -32.414 -14.582  16.857  0.00  0.00    -0.275 OA
ATOM      4  H   TYR A   1     -30.535 -12.200  15.671  0.00  0.00    +0.150 HD
ENDROOT
BRANCH   1   5
ATOM      5  CA  TYR A   1     -29.630 -13.984  16.507  0.00  0.00    +0.186 C 
BRANCH   5   7
ATOM      6  O   TYR A   1     -29.669 -15.062  14.362  0.00  0.00    -0.249 OA
ATOM      7  C   TYR A   1     -28.971 -14.615  15.313  0.00  0.00    +0.326 C 
BRANCH   7   8
ATOM      8  OXT TYR A   1     -27.583 -14.688  15.247  0.00  0.00    -0.479 OA
ATOM      9  HXT TYR A   1     -27.059 -14.073  14.636  0.00  0.00    +0.295 HD
ENDBRANCH   7   8
ENDBRANCH   5   7
BRANCH   5  10
ATOM     10  CB  TYR A   1     -28.609 -13.153  17.305  0.00  0.00    +0.069 C 
BRANCH  10  11
ATOM     11  CG  TYR A   1     -29.219 -12.585  18.561  0.00  0.00    -0.045 A 
ATOM     12  CD1 TYR A   1     -28.922 -11.272  18.964  0.00  0.00    +0.007 A 
ATOM     13  CE1 TYR A   1     -29.538 -10.725  20.094  0.00  0.00    +0.045 A 
ATOM     14  CZ  TYR A   1     -30.470 -11.477  20.821  0.00  0.00    +0.117 A 
ATOM     15  CE2 TYR A   1     -30.768 -12.784  20.425  0.00  0.00    +0.045 A 
ATOM     16  CD2 TYR A   1     -30.145 -13.338  19.301  0.00  0.00    +0.007 A 
BRANCH  14  17
ATOM     17  OH  TYR A   1     -31.108 -10.933  21.934  0.00  0.00    -0.507 OA
ATOM     18  HH  TYR A   1     -31.823 -11.444  22.437  0.00  0.00    +0.292 HD
ENDBRANCH  14  17
ENDBRANCH  10  11
ENDBRANCH   5  10
ENDBRANCH   1   5
BRANCH   2  19
ATOM     19  C   UNK A   0     -33.186 -12.395  16.212  0.00  0.00    +0.135 C 
BRANCH  19  20
ATOM     20  C   UNK A   0     -32.905 -11.103  16.961  0.00  0.00    -0.031 A 
ATOM     21  C   UNK A   0     -33.611 -10.741  18.128  0.00  0.00    +0.005 A 
ATOM     22  C   UNK A   0     -33.296  -9.561  18.809  0.00  0.00    +0.000 A 
ATOM     23  C   UNK A   0     -32.272  -8.736  18.345  0.00  0.00    +0.000 A 
ATOM     24  C   UNK A   0     -31.553  -9.091  17.201  0.00  0.00    +0.000 A 
ATOM     25  C   UNK A   0     -31.862 -10.269  16.517  0.00  0.00    +0.005 A 
ENDBRANCH  19  20
BRANCH  19  26
ATOM     26  C   UNK A   0     -33.451 -12.136  14.739  0.00  0.00    -0.031 A 
ATOM     27  C   UNK A   0     -32.714 -12.798  13.736  0.00  0.00    +0.005 A 
ATOM     28  C   UNK A   0     -33.000 -12.578  12.385  0.00  0.00    +0.000 A 
ATOM     29  C   UNK A   0     -34.022 -11.699  12.018  0.00  0.00    +0.000 A 
ATOM     30  C   UNK A   0     -34.757 -11.035  13.002  0.00  0.00    +0.000 A 
ATOM     31  C   UNK A   0     -34.474 -11.250  14.355  0.00  0.00    +0.005 A 
ENDBRANCH  19  26
ENDBRANCH   2  19
TORSDOF 9
ENDMDL
MODEL 8
REMARK VINA RESULT:    -4.265      2.220      7.260
REMARK INTER + INTRA:          -9.677
REMARK INTER:                  -6.403
REMARK INTRA:                  -3.274
REMARK UNBOUND:                -3.417
REMARK  Name = 
REMARK  9 active torsions:
REMARK  status: ('A' for Active; 'I' for Inactive)
REMARK    1  A    between atoms: C_2  and  OXT_3
REMARK    2  A    between atoms: C_2  and  CA_4
REMARK    3  A    between atoms: CA_4  and  CB_5
REMARK    4  A    between atoms: CA_4  and  N_13
REMARK    5  A    between atoms: CB_5  and  CG_6
REMARK    6  A    between atoms: CZ_9  and  OH_10
REMARK    7  A    between atoms: C_14  and  C_16
REMARK    8  A    between atoms: C_16  and  C_17
REMARK    9  A    between atoms: C_16  and  C_23
REMARK                            x       y       z     vdW  Elec       q    Type
REMARK                         _______ _______ _______ _____ _____    ______ ____
ROOT
ATOM      1  N   TYR A   1     -32.733  -9.549  17.192  0.00  0.00    -0.301 N 
ATOM      2  C   UNK A   0     -33.088  -9.674  18.577  0.00  0.00    +0.225 C 
ATOM      3  O   UNK A   0     -34.286  -9.899  18.903  0.00  0.00    -0.275 OA
ATOM      4  H   TYR A   1     -31.739  -9.327  16.954  0.00  0.00    +0.150 HD
ENDROOT
BRANCH   1   5
ATOM      5  CA  TYR A   1     -33.628  -9.979  16.111  0.00  0.00    +0.186 C 
BRANCH   5   7
ATOM      6  O   TYR A   1     -34.749  -8.890  14.288  0.00  0.00    -0.249 OA
ATOM      7  C   TYR A   1     -34.212  -8.777  15.423  0.00  0.00    +0.326 C 
BRANCH   7   8
ATOM      8  OXT TYR A   1     -34.177  -7.536  16.052  0.00  0.00    -0.479 OA
ATOM      9  HXT TYR A   1     -35.027  -7.105  16.398  0.00  0.00    +0.295 HD
ENDBRANCH   7   8
ENDBRANCH   5   7
BRANCH   5  10
ATOM     10  CB  TYR A   1     -32.871 -10.859  15.101  0.00  0.00    +0.069 C 
BRANCH  10  11
ATOM     11  CG  TYR A   1     -32.175 -12.009  15.783  0.00  0.00    -0.045 A 
ATOM     12  CD1 TYR A   1     -30.880 -12.390  15.391  0.00  0.00    +0.007 A 
ATOM     13  CE1 TYR A   1     -30.211 -13.415  16.067  0.00  0.00    +0.045 A 
ATOM     14  CZ  TYR A   1     -30.821 -14.057  17.153  0.00  0.00    +0.117 A 
ATOM     15  CE2 TYR A   1     -32.109 -13.683  17.546  0.00  0.00    +0.045 A 
ATOM     16  CD2 TYR A   1     -32.785 -12.664  16.865  0.00  0.00    +0.007 A 
BRANCH  14  17
ATOM     17  OH  TYR A   1     -30.153 -15.062  17.848  0.00  0.00    -0.507 OA
ATOM     18  HH  TYR A   1     -30.428 -16.034  17.768  0.00  0.00    +0.292 HD
ENDBRANCH  14  17
ENDBRANCH  10  11
ENDBRANCH   5  10
ENDBRANCH   1   5
BRANCH   2  19
ATOM     19  C   UNK A   0     -32.029  -9.513  19.645  0.00  0.00    +0.135 C 
BRANCH  19  20
ATOM     20  C   UNK A   0     -30.740 -10.250  19.320  0.00  0.00    -0.031 A 
ATOM     21  C   UNK A   0     -29.916  -9.881  18.235  0.00  0.00    +0.005 A 
ATOM     22  C   UNK A   0     -28.719 -10.562  17.991  0.00  0.00    +0.000 A 
ATOM     23  C   UNK A   0     -28.324 -11.607  18.828  0.00  0.00    +0.000 A 
ATOM     24  C   UNK A   0     -29.121 -11.970  19.916  0.00  0.00    +0.000 A 
ATOM     25  C   UNK A   0     -30.318 -11.293  20.165  0.00  0.00    +0.005 A 
ENDBRANCH  19  20
BRANCH  19  26
ATOM     26  C   UNK A   0     -31.767  -8.050  19.959  0.00  0.00    -0.031 A 
ATOM     27  C   UNK A   0     -32.542  -7.026  19.377  0.00  0.00    +0.005 A 
ATOM     28  C   UNK A   0     -32.314  -5.688  19.710  0.00  0.00    +0.000 A 
ATOM     29  C   UNK A   0     -31.314  -5.354  20.627  0.00  0.00    +0.000 A 
ATOM     30  C   UNK A   0     -30.538  -6.359  21.209  0.00  0.00    +0.000 A 
ATOM     31  C   UNK A   0     -30.761  -7.699  20.877  0.00  0.00    +0.005 A 
ENDBRANCH  19  26
ENDBRANCH   2  19
TORSDOF 9
ENDMDL
MODEL 9
REMARK VINA RESULT:    -4.222      1.888      5.991
REMARK INTER + INTRA:          -9.613
REMARK INTER:                  -7.042
REMARK INTRA:                  -2.571
REMARK UNBOUND:                -3.417
REMARK  Name = 
REMARK  9 active torsions:
REMARK  status: ('A' for Active; 'I' for Inactive)
REMARK    1  A    between atoms: C_2  and  OXT_3
REMARK    2  A    between atoms: C_2  and  CA_4
REMARK    3  A    between atoms: CA_4  and  CB_5
REMARK    4  A    between atoms: CA_4  and  N_13
REMARK    5  A    between atoms: CB_5  and  CG_6
REMARK    6  A    between atoms: CZ_9  and  OH_10
REMARK    7  A    between atoms: C_14  and  C_16
REMARK    8  A    between atoms: C_16  and  C_17
REMARK    9  A    between atoms: C_16  and  C_23
REMARK                            x       y       z     vdW  Elec       q    Type
REMARK                         _______ _______ _______ _____ _____    ______ ____
ROOT
ATOM      1  N   TYR A   1     -30.053 -11.769  18.194  0.00  0.00    -0.301 N 
ATOM      2  C   UNK A   0     -29.801 -10.421  17.770  0.00  0.00    +0.225 C 
ATOM      3  O   UNK A   0     -28.625 -10.057  17.492  0.00  0.00    -0.275 OA
ATOM      4  H   TYR A   1     -31.031 -12.032  18.453  0.00  0.00    +0.150 HD
ENDROOT
BRANCH   1   5
ATOM      5  CA  TYR A   1     -29.066 -12.842  18.023  0.00  0.00    +0.186 C 
BRANCH   5   7
ATOM      6  O   TYR A   1     -27.704 -12.162  19.881  0.00  0.00    -0.249 OA
ATOM      7  C   TYR A   1     -28.350 -13.089  19.321  0.00  0.00    +0.326 C 
BRANCH   7   8
ATOM      8  OXT TYR A   1     -28.417 -14.344  19.919  0.00  0.00    -0.479 OA
ATOM      9  HXT TYR A   1     -27.579 -14.807  20.251  0.00  0.00    +0.295 HD
ENDBRANCH   7   8
ENDBRANCH   5   7
BRANCH   5  10
ATOM     10  CB  TYR A   1     -29.750 -14.131  17.534  0.00  0.00    +0.069 C 
BRANCH  10  11
ATOM     11  CG  TYR A   1     -30.014 -14.089  16.051  0.00  0.00    -0.045 A 
ATOM     12  CD1 TYR A   1     -29.117 -14.689  15.151  0.00  0.00    +0.007 A 
ATOM     13  CE1 TYR A   1     -29.396 -14.704  13.781  0.00  0.00    +0.045 A 
ATOM     14  CZ  TYR A   1     -30.582 -14.136  13.298  0.00  0.00    +0.117 A 
ATOM     15  CE2 TYR A   1     -31.477 -13.536  14.188  0.00  0.00    +0.045 A 
ATOM     16  CD2 TYR A   1     -31.196 -13.510  15.559  0.00  0.00    +0.007 A 
BRANCH  14  17
ATOM     17  OH  TYR A   1     -30.880 -14.167  11.938  0.00  0.00    -0.507 OA
ATOM     18  HH  TYR A   1     -30.157 -14.079  11.234  0.00  0.00    +0.292 HD
ENDBRANCH  14  17
ENDBRANCH  10  11
ENDBRANCH   5  10
ENDBRANCH   1   5
BRANCH   2  19
ATOM     19  C   UNK A   0     -30.943  -9.433  17.682  0.00  0.00    +0.135 C 
BRANCH  19  20
ATOM     20  C   UNK A   0     -32.166  -9.999  16.979  0.00  0.00    -0.031 A 
ATOM     21  C   UNK A   0     -33.174 -10.702  17.674  0.00  0.00    +0.005 A 
ATOM     22  C   UNK A   0     -34.302 -11.176  16.997  0.00  0.00    +0.000 A 
ATOM     23  C   UNK A   0     -34.445 -10.946  15.628  0.00  0.00    +0.000 A 
ATOM     24  C   UNK A   0     -33.465 -10.236  14.932  0.00  0.00    +0.000 A 
ATOM     25  C   UNK A   0     -32.335  -9.760  15.603  0.00  0.00    +0.005 A 
ENDBRANCH  19  20
BRANCH  19  26
ATOM     26  C   UNK A   0     -31.299  -8.863  19.044  0.00  0.00    -0.031 A 
ATOM     27  C   UNK A   0     -30.675  -9.329  20.218  0.00  0.00    +0.005 A 
ATOM     28  C   UNK A   0     -30.985  -8.764  21.458  0.00  0.00    +0.000 A 
ATOM     29  C   UNK A   0     -31.919  -7.728  21.543  0.00  0.00    +0.000 A 
ATOM     30  C   UNK A   0     -32.546  -7.259  20.387  0.00  0.00    +0.000 A 
ATOM     31  C   UNK A   0     -32.241  -7.823  19.145  0.00  0.00    +0.005 A 
ENDBRANCH  19  26
ENDBRANCH   2  19
TORSDOF 9
ENDMDL
