MODEL 1
REMARK VINA RESULT:    -3.506      0.000      0.000
REMARK INTER + INTRA:          -7.293
REMARK INTER:                  -5.146
REMARK INTRA:                  -2.147
REMARK UNBOUND:                -2.147
REMARK  Name = 
REMARK  9 active torsions:
REMARK  status: ('A' for Active; 'I' for Inactive)
REMARK    1  A    between atoms: C_1  and  C_2
REMARK    2  A    between atoms: C_2  and  C_3
REMARK    3  A    between atoms: C_3  and  O_4
REMARK    4  A    between atoms: O_4  and  C_5
REMARK    5  A    between atoms: C_10  and  O_11
REMARK    6  A    between atoms: O_11  and  C_12
REMARK    7  A    between atoms: C_12  and  C_13
REMARK    8  A    between atoms: N_15  and  C_16
REMARK    9  A    between atoms: C_19  and  C_22
REMARK                            x       y       z     vdW  Elec       q    Type
REMARK                         _______ _______ _______ _____ _____    ______ ____
ROOT
ATOM      1  C   UNL     1     -32.655 -10.886  15.048  0.00  0.00    +0.255 C 
ATOM      2  O   UNL     1     -32.978  -9.676  14.901  0.00  0.00    -0.272 OA
ATOM      3  N   UNL     1     -32.298 -11.397  16.343  0.00  0.00    -0.283 N 
ATOM      4  H   UNL     1     -32.327 -12.433  16.480  0.00  0.00    +0.155 HD
ENDROOT
BRANCH   3   5
ATOM      5  C   UNL     1     -32.024 -10.572  17.488  0.00  0.00    +0.034 A 
ATOM      6  C   UNL     1     -30.761  -9.987  17.687  0.00  0.00    +0.024 A 
ATOM      7  C   UNL     1     -30.511  -9.209  18.822  0.00  0.00    +0.015 A 
ATOM      8  C   UNL     1     -31.514  -9.013  19.789  0.00  0.00    +0.037 A 
ATOM      9  C   UNL     1     -32.772  -9.609  19.591  0.00  0.00    +0.015 A 
ATOM     10  C   UNL     1     -33.019 -10.389  18.457  0.00  0.00    +0.024 A 
BRANCH   8  11
ATOM     11  C   UNL     1     -31.269  -8.185  20.995  0.00  0.00    +0.242 C 
ATOM     12  N   UNL     1     -30.062  -7.435  21.156  0.00  0.00    -0.325 N 
ATOM     13  O   UNL     1     -32.135  -8.146  21.910  0.00  0.00    -0.270 OA
ATOM     14  H   UNL     1     -29.942  -6.814  21.986  0.00  0.00    +0.145 HD
ATOM     15  H   UNL     1     -29.249  -7.555  20.513  0.00  0.00    +0.145 HD
ENDBRANCH   8  11
ENDBRANCH   3   5
BRANCH   1  16
ATOM     16  C   UNL     1     -32.741 -11.815  13.882  0.00  0.00    +0.325 C 
BRANCH  16  17
ATOM     17  O   UNL     1     -32.399 -13.131  14.308  0.00  0.00    -0.479 OA
BRANCH  17  23
ATOM     18  C   UNL     1     -30.378 -14.025  15.273  0.00  0.00    +0.162 A 
ATOM     19  C   UNL     1     -29.108 -14.617  15.124  0.00  0.00    +0.049 A 
ATOM     20  C   UNL     1     -28.612 -14.911  13.852  0.00  0.00    +0.004 A 
ATOM     21  C   UNL     1     -29.370 -14.616  12.719  0.00  0.00    +0.004 A 
ATOM     22  C   UNL     1     -30.628 -14.025  12.853  0.00  0.00    +0.049 A 
ATOM     23  C   UNL     1     -31.140 -13.725  14.131  0.00  0.00    +0.163 A 
BRANCH  18  24
ATOM     24  O   UNL     1     -30.919 -13.707  16.532  0.00  0.00    -0.488 OA
BRANCH  24  25
ATOM     25  C   UNL     1     -30.641 -14.390  17.755  0.00  0.00    +0.229 C 
BRANCH  25  27
ATOM     26  C   UNL     1     -30.587 -13.180  19.967  0.00  0.00    +0.007 C 
ATOM     27  C   UNL     1     -29.815 -13.502  18.691  0.00  0.00    +0.038 C 
ENDBRANCH  25  27
ENDBRANCH  24  25
ENDBRANCH  18  24
ENDBRANCH  17  23
ENDBRANCH  16  17
ENDBRANCH   1  16
TORSDOF 8
ENDMDL
MODEL 2
REMARK VINA RESULT:    -3.433      1.924      2.181
REMARK INTER + INTRA:          -7.185
REMARK INTER:                  -5.614
REMARK INTRA:                  -1.571
REMARK UNBOUND:                -2.147
REMARK  Name = 
REMARK  9 active torsions:
REMARK  status: ('A' for Active; 'I' for Inactive)
REMARK    1  A    between atoms: C_1  and  C_2
REMARK    2  A    between atoms: C_2  and  C_3
REMARK    3  A    between atoms: C_3  and  O_4
REMARK    4  A    between atoms: O_4  and  C_5
REMARK    5  A    between atoms: C_10  and  O_11
REMARK    6  A    between atoms: O_11  and  C_12
REMARK    7  A    between atoms: C_12  and  C_13
REMARK    8  A    between atoms: N_15  and  C_16
REMARK    9  A    between atoms: C_19  and  C_22
REMARK                            x       y       z     vdW  Elec       q    Type
REMARK                         _______ _______ _______ _____ _____    ______ ____
ROOT
ATOM      1  C   UNL     1     -32.886 -11.652  14.574  0.00  0.00    +0.255 C 
ATOM      2  O   UNL     1     -33.552 -12.318  15.412  0.00  0.00    -0.272 OA
ATOM      3  N   UNL     1     -32.407 -10.337  14.897  0.00  0.00    -0.283 N 
ATOM      4  H   UNL     1     -31.631  -9.948  14.315  0.00  0.00    +0.155 HD
ENDROOT
BRANCH   3   5
ATOM      5  C   UNL     1     -32.842  -9.578  16.037  0.00  0.00    +0.034 A 
ATOM      6  C   UNL     1     -32.062  -9.493  17.204  0.00  0.00    +0.024 A 
ATOM      7  C   UNL     1     -32.518  -8.768  18.310  0.00  0.00    +0.015 A 
ATOM      8  C   UNL     1     -33.771  -8.129  18.279  0.00  0.00    +0.037 A 
ATOM      9  C   UNL     1     -34.552  -8.225  17.113  0.00  0.00    +0.015 A 
ATOM     10  C   UNL     1     -34.095  -8.952  16.010  0.00  0.00    +0.024 A 
BRANCH   8  11
ATOM     11  C   UNL     1     -34.268  -7.350  19.439  0.00  0.00    +0.242 C 
ATOM     12  N   UNL     1     -35.060  -7.958  20.464  0.00  0.00    -0.325 N 
ATOM     13  O   UNL     1     -34.001  -6.121  19.525  0.00  0.00    -0.270 OA
ATOM     14  H   UNL     1     -35.346  -7.400  21.299  0.00  0.00    +0.145 HD
ATOM     15  H   UNL     1     -35.443  -8.923  20.365  0.00  0.00    +0.145 HD
ENDBRANCH   8  11
ENDBRANCH   3   5
BRANCH   1  16
ATOM     16  C   UNL     1     -32.510 -12.280  13.271  0.00  0.00    +0.325 C 
BRANCH  16  17
ATOM     17  O   UNL     1     -32.131 -13.635  13.499  0.00  0.00    -0.479 OA
BRANCH  17  23
ATOM     18  C   UNL     1     -30.350 -14.471  14.892  0.00  0.00    +0.162 A 
ATOM     19  C   UNL     1     -29.022 -14.920  15.044  0.00  0.00    +0.049 A 
ATOM     20  C   UNL     1     -28.169 -14.986  13.941  0.00  0.00    +0.004 A 
ATOM     21  C   UNL     1     -28.624 -14.603  12.679  0.00  0.00    +0.004 A 
ATOM     22  C   UNL     1     -29.936 -14.152  12.515  0.00  0.00    +0.049 A 
ATOM     23  C   UNL     1     -30.807 -14.082  13.621  0.00  0.00    +0.163 A 
BRANCH  18  24
ATOM     24  O   UNL     1     -31.245 -14.385  15.972  0.00  0.00    -0.488 OA
BRANCH  24  25
ATOM     25  C   UNL     1     -30.896 -14.474  17.354  0.00  0.00    +0.229 C 
BRANCH  25  27
ATOM     26  C   UNL     1     -29.640 -12.388  18.011  0.00  0.00    +0.007 C 
ATOM     27  C   UNL     1     -30.990 -13.099  18.022  0.00  0.00    +0.038 C 
ENDBRANCH  25  27
ENDBRANCH  24  25
ENDBRANCH  18  24
ENDBRANCH  17  23
ENDBRANCH  16  17
ENDBRANCH   1  16
TORSDOF 8
ENDMDL
MODEL 3
REMARK VINA RESULT:    -3.327      2.569      6.684
REMARK INTER + INTRA:          -7.031
REMARK INTER:                  -6.026
REMARK INTRA:                  -1.004
REMARK UNBOUND:                -2.147
REMARK  Name = 
REMARK  9 active torsions:
REMARK  status: ('A' for Active; 'I' for Inactive)
REMARK    1  A    between atoms: C_1  and  C_2
REMARK    2  A    between atoms: C_2  and  C_3
REMARK    3  A    between atoms: C_3  and  O_4
REMARK    4  A    between atoms: O_4  and  C_5
REMARK    5  A    between atoms: C_10  and  O_11
REMARK    6  A    between atoms: O_11  and  C_12
REMARK    7  A    between atoms: C_12  and  C_13
REMARK    8  A    between atoms: N_15  and  C_16
REMARK    9  A    between atoms: C_19  and  C_22
REMARK                            x       y       z     vdW  Elec       q    Type
REMARK                         _______ _______ _______ _____ _____    ______ ____
ROOT
ATOM      1  C   UNL     1     -29.879 -10.384  17.153  0.00  0.00    +0.255 C 
ATOM      2  O   UNL     1     -29.903  -9.460  16.296  0.00  0.00    -0.272 OA
ATOM      3  N   UNL     1     -30.492 -11.655  16.878  0.00  0.00    -0.283 N 
ATOM      4  H   UNL     1     -30.203 -12.468  17.468  0.00  0.00    +0.155 HD
ENDROOT
BRANCH   3   5
ATOM      5  C   UNL     1     -31.378 -11.901  15.774  0.00  0.00    +0.034 A 
ATOM      6  C   UNL     1     -31.008 -12.736  14.706  0.00  0.00    +0.024 A 
ATOM      7  C   UNL     1     -31.878 -12.940  13.631  0.00  0.00    +0.015 A 
ATOM      8  C   UNL     1     -33.130 -12.299  13.592  0.00  0.00    +0.037 A 
ATOM      9  C   UNL     1     -33.492 -11.456  14.658  0.00  0.00    +0.015 A 
ATOM     10  C   UNL     1     -32.619 -11.251  15.731  0.00  0.00    +0.024 A 
BRANCH   8  11
ATOM     11  C   UNL     1     -34.069 -12.510  12.464  0.00  0.00    +0.242 C 
ATOM     12  N   UNL     1     -34.885 -11.448  11.962  0.00  0.00    -0.325 N 
ATOM     13  O   UNL     1     -34.165 -13.651  11.938  0.00  0.00    -0.270 OA
ATOM     14  H   UNL     1     -35.493 -11.608  11.128  0.00  0.00    +0.145 HD
ATOM     15  H   UNL     1     -34.965 -10.533  12.457  0.00  0.00    +0.145 HD
ENDBRANCH   8  11
ENDBRANCH   3   5
BRANCH   1  16
ATOM     16  C   UNL     1     -29.121 -10.185  18.425  0.00  0.00    +0.325 C 
BRANCH  16  17
ATOM     17  O   UNL     1     -29.881  -9.350  19.294  0.00  0.00    -0.479 OA
BRANCH  17  23
ATOM     18  C   UNL     1     -31.528 -10.717  20.406  0.00  0.00    +0.162 A 
ATOM     19  C   UNL     1     -32.866 -10.970  20.768  0.00  0.00    +0.049 A 
ATOM     20  C   UNL     1     -33.880 -10.091  20.382  0.00  0.00    +0.004 A 
ATOM     21  C   UNL     1     -33.575  -8.956  19.629  0.00  0.00    +0.004 A 
ATOM     22  C   UNL     1     -32.254  -8.696  19.260  0.00  0.00    +0.049 A 
ATOM     23  C   UNL     1     -31.222  -9.576  19.645  0.00  0.00    +0.163 A 
BRANCH  18  24
ATOM     24  O   UNL     1     -30.474 -11.573  20.769  0.00  0.00    -0.488 OA
BRANCH  24  25
ATOM     25  C   UNL     1     -30.431 -12.983  20.548  0.00  0.00    +0.229 C 
BRANCH  25  27
ATOM     26  C   UNL     1     -28.154 -13.283  21.590  0.00  0.00    +0.007 C 
ATOM     27  C   UNL     1     -28.989 -13.449  20.324  0.00  0.00    +0.038 C 
ENDBRANCH  25  27
ENDBRANCH  24  25
ENDBRANCH  18  24
ENDBRANCH  17  23
ENDBRANCH  16  17
ENDBRANCH   1  16
TORSDOF 8
ENDMDL
MODEL 4
REMARK VINA RESULT:    -3.313      2.848      5.764
REMARK INTER + INTRA:          -7.010
REMARK INTER:                  -5.473
REMARK INTRA:                  -1.537
REMARK UNBOUND:                -2.147
REMARK  Name = 
REMARK  9 active torsions:
REMARK  status: ('A' for Active; 'I' for Inactive)
REMARK    1  A    between atoms: C_1  and  C_2
REMARK    2  A    between atoms: C_2  and  C_3
REMARK    3  A    between atoms: C_3  and  O_4
REMARK    4  A    between atoms: O_4  and  C_5
REMARK    5  A    between atoms: C_10  and  O_11
REMARK    6  A    between atoms: O_11  and  C_12
REMARK    7  A    between atoms: C_12  and  C_13
REMARK    8  A    between atoms: N_15  and  C_16
REMARK    9  A    between atoms: C_19  and  C_22
REMARK                            x       y       z     vdW  Elec       q    Type
REMARK                         _______ _______ _______ _____ _____    ______ ____
ROOT
ATOM      1  C   UNL     1     -31.529 -11.605  20.205  0.00  0.00    +0.255 C 
ATOM      2  O   UNL     1     -32.547 -12.323  20.006  0.00  0.00    -0.272 OA
ATOM      3  N   UNL     1     -31.323 -10.401  19.449  0.00  0.00    -0.283 N 
ATOM      4  H   UNL     1     -30.651  -9.698  19.833  0.00  0.00    +0.155 HD
ENDROOT
BRANCH   3   5
ATOM      5  C   UNL     1     -32.067 -10.050  18.271  0.00  0.00    +0.034 A 
ATOM      6  C   UNL     1     -31.573 -10.318  16.982  0.00  0.00    +0.024 A 
ATOM      7  C   UNL     1     -32.305  -9.944  15.851  0.00  0.00    +0.015 A 
ATOM      8  C   UNL     1     -33.538  -9.280  15.984  0.00  0.00    +0.037 A 
ATOM      9  C   UNL     1     -34.024  -9.006  17.275  0.00  0.00    +0.015 A 
ATOM     10  C   UNL     1     -33.289  -9.377  18.405  0.00  0.00    +0.024 A 
BRANCH   8  11
ATOM     11  C   UNL     1     -34.332  -8.883  14.795  0.00  0.00    +0.242 C 
ATOM     12  N   UNL     1     -34.776  -7.537  14.608  0.00  0.00    -0.325 N 
ATOM     13  O   UNL     1     -34.637  -9.749  13.932  0.00  0.00    -0.270 OA
ATOM     14  H   UNL     1     -35.281  -7.273  13.733  0.00  0.00    +0.145 HD
ATOM     15  H   UNL     1     -34.692  -6.819  15.361  0.00  0.00    +0.145 HD
ENDBRANCH   8  11
ENDBRANCH   3   5
BRANCH   1  16
ATOM     16  C   UNL     1     -30.583 -11.964  21.304  0.00  0.00    +0.325 C 
BRANCH  16  17
ATOM     17  O   UNL     1     -29.985 -13.224  21.012  0.00  0.00    -0.479 OA
BRANCH  17  23
ATOM     18  C   UNL     1     -27.909 -13.135  19.788  0.00  0.00    +0.162 A 
ATOM     19  C   UNL     1     -26.520 -13.365  19.715  0.00  0.00    +0.049 A 
ATOM     20  C   UNL     1     -25.836 -13.903  20.807  0.00  0.00    +0.004 A 
ATOM     21  C   UNL     1     -26.524 -14.221  21.978  0.00  0.00    +0.004 A 
ATOM     22  C   UNL     1     -27.901 -14.002  22.062  0.00  0.00    +0.049 A 
ATOM     23  C   UNL     1     -28.602 -13.459  20.967  0.00  0.00    +0.163 A 
BRANCH  18  24
ATOM     24  O   UNL     1     -28.642 -12.598  18.716  0.00  0.00    -0.488 OA
BRANCH  24  25
ATOM     25  C   UNL     1     -28.922 -13.262  17.482  0.00  0.00    +0.229 C 
BRANCH  25  27
ATOM     26  C   UNL     1     -30.887 -14.149  16.175  0.00  0.00    +0.007 C 
ATOM     27  C   UNL     1     -30.263 -13.998  17.559  0.00  0.00    +0.038 C 
ENDBRANCH  25  27
ENDBRANCH  24  25
ENDBRANCH  18  24
ENDBRANCH  17  23
ENDBRANCH  16  17
ENDBRANCH   1  16
TORSDOF 8
ENDMDL
MODEL 5
REMARK VINA RESULT:    -3.308      3.244      6.024
REMARK INTER + INTRA:          -7.003
REMARK INTER:                  -5.691
REMARK INTRA:                  -1.312
REMARK UNBOUND:                -2.147
REMARK  Name = 
REMARK  9 active torsions:
REMARK  status: ('A' for Active; 'I' for Inactive)
REMARK    1  A    between atoms: C_1  and  C_2
REMARK    2  A    between atoms: C_2  and  C_3
REMARK    3  A    between atoms: C_3  and  O_4
REMARK    4  A    between atoms: O_4  and  C_5
REMARK    5  A    between atoms: C_10  and  O_11
REMARK    6  A    between atoms: O_11  and  C_12
REMARK    7  A    between atoms: C_12  and  C_13
REMARK    8  A    between atoms: N_15  and  C_16
REMARK    9  A    between atoms: C_19  and  C_22
REMARK                            x       y       z     vdW  Elec       q    Type
REMARK                         _______ _______ _______ _____ _____    ______ ____
ROOT
ATOM      1  C   UNL     1     -31.483 -10.601  20.421  0.00  0.00    +0.255 C 
ATOM      2  O   UNL     1     -30.876 -10.110  21.411  0.00  0.00    -0.272 OA
ATOM      3  N   UNL     1     -31.004 -11.798  19.787  0.00  0.00    -0.283 N 
ATOM      4  H   UNL     1     -31.674 -12.326  19.182  0.00  0.00    +0.155 HD
ENDROOT
BRANCH   3   5
ATOM      5  C   UNL     1     -29.710 -12.375  20.027  0.00  0.00    +0.034 A 
ATOM      6  C   UNL     1     -28.593 -12.026  19.248  0.00  0.00    +0.024 A 
ATOM      7  C   UNL     1     -27.350 -12.621  19.485  0.00  0.00    +0.015 A 
ATOM      8  C   UNL     1     -27.201 -13.589  20.495  0.00  0.00    +0.037 A 
ATOM      9  C   UNL     1     -28.323 -13.942  21.265  0.00  0.00    +0.015 A 
ATOM     10  C   UNL     1     -29.567 -13.349  21.024  0.00  0.00    +0.024 A 
BRANCH   8  11
ATOM     11  C   UNL     1     -25.889 -14.224  20.765  0.00  0.00    +0.242 C 
ATOM     12  N   UNL     1     -25.666 -15.011  21.939  0.00  0.00    -0.325 N 
ATOM     13  O   UNL     1     -24.938 -14.061  19.954  0.00  0.00    -0.270 OA
ATOM     14  H   UNL     1     -24.751 -15.496  22.074  0.00  0.00    +0.145 HD
ATOM     15  H   UNL     1     -26.360 -15.047  22.718  0.00  0.00    +0.145 HD
ENDBRANCH   8  11
ENDBRANCH   3   5
BRANCH   1  16
ATOM     16  C   UNL     1     -32.766  -9.983  19.967  0.00  0.00    +0.325 C 
BRANCH  16  17
ATOM     17  O   UNL     1     -33.304 -10.757  18.899  0.00  0.00    -0.479 OA
BRANCH  17  23
ATOM     18  C   UNL     1     -33.288 -11.067  16.507  0.00  0.00    +0.162 A 
ATOM     19  C   UNL     1     -33.557 -10.588  15.209  0.00  0.00    +0.049 A 
ATOM     20  C   UNL     1     -34.120  -9.324  15.026  0.00  0.00    +0.004 A 
ATOM     21  C   UNL     1     -34.418  -8.523  16.128  0.00  0.00    +0.004 A 
ATOM     22  C   UNL     1     -34.153  -8.983  17.419  0.00  0.00    +0.049 A 
ATOM     23  C   UNL     1     -33.585 -10.258  17.617  0.00  0.00    +0.163 A 
BRANCH  18  24
ATOM     24  O   UNL     1     -32.719 -12.330  16.742  0.00  0.00    -0.488 OA
BRANCH  24  25
ATOM     25  C   UNL     1     -31.353 -12.683  16.525  0.00  0.00    +0.229 C 
BRANCH  25  27
ATOM     26  C   UNL     1     -30.438 -14.715  15.344  0.00  0.00    +0.007 C 
ATOM     27  C   UNL     1     -31.174 -14.203  16.578  0.00  0.00    +0.038 C 
ENDBRANCH  25  27
ENDBRANCH  24  25
ENDBRANCH  18  24
ENDBRANCH  17  23
ENDBRANCH  16  17
ENDBRANCH   1  16
TORSDOF 8
ENDMDL
MODEL 6
REMARK VINA RESULT:    -3.279      1.561      3.140
REMARK INTER + INTRA:          -6.960
REMARK INTER:                  -5.391
REMARK INTRA:                  -1.569
REMARK UNBOUND:                -2.147
REMARK  Name = 
REMARK  9 active torsions:
REMARK  status: ('A' for Active; 'I' for Inactive)
REMARK    1  A    between atoms: C_1  and  C_2
REMARK    2  A    between atoms: C_2  and  C_3
REMARK    3  A    between atoms: C_3  and  O_4
REMARK    4  A    between atoms: O_4  and  C_5
REMARK    5  A    between atoms: C_10  and  O_11
REMARK    6  A    between atoms: O_11  and  C_12
REMARK    7  A    between atoms: C_12  and  C_13
REMARK    8  A    between atoms: N_15  and  C_16
REMARK    9  A    between atoms: C_19  and  C_22
REMARK                            x       y       z     vdW  Elec       q    Type
REMARK                         _______ _______ _______ _____ _____    ______ ____
ROOT
ATOM      1  C   UNL     1     -30.408 -12.904  17.814  0.00  0.00    +0.255 C 
ATOM      2  O   UNL     1     -29.363 -12.305  17.440  0.00  0.00    -0.272 OA
ATOM      3  N   UNL     1     -31.431 -12.206  18.544  0.00  0.00    -0.283 N 
ATOM      4  H   UNL     1     -32.382 -12.637  18.575  0.00  0.00    +0.155 HD
ENDROOT
BRANCH   3   5
ATOM      5  C   UNL     1     -31.260 -10.903  19.126  0.00  0.00    +0.034 A 
ATOM      6  C   UNL     1     -30.731 -10.739  20.418  0.00  0.00    +0.024 A 
ATOM      7  C   UNL     1     -30.597  -9.462  20.973  0.00  0.00    +0.015 A 
ATOM      8  C   UNL     1     -31.006  -8.324  20.253  0.00  0.00    +0.037 A 
ATOM      9  C   UNL     1     -31.544  -8.494  18.965  0.00  0.00    +0.015 A 
ATOM     10  C   UNL     1     -31.679  -9.772  18.414  0.00  0.00    +0.024 A 
BRANCH   8  11
ATOM     11  C   UNL     1     -30.866  -6.962  20.822  0.00  0.00    +0.242 C 
ATOM     12  N   UNL     1     -31.975  -6.281  21.415  0.00  0.00    -0.325 N 
ATOM     13  O   UNL     1     -29.749  -6.378  20.774  0.00  0.00    -0.270 OA
ATOM     14  H   UNL     1     -31.833  -5.347  21.862  0.00  0.00    +0.145 HD
ATOM     15  H   UNL     1     -32.949  -6.645  21.340  0.00  0.00    +0.145 HD
ENDBRANCH   8  11
ENDBRANCH   3   5
BRANCH   1  16
ATOM     16  C   UNL     1     -30.624 -14.325  17.408  0.00  0.00    +0.325 C 
BRANCH  16  17
ATOM     17  O   UNL     1     -31.145 -14.356  16.082  0.00  0.00    -0.479 OA
BRANCH  17  23
ATOM     18  C   UNL     1     -30.912 -14.005  13.708  0.00  0.00    +0.162 A 
ATOM     19  C   UNL     1     -30.150 -14.096  12.525  0.00  0.00    +0.049 A 
ATOM     20  C   UNL     1     -28.856 -14.620  12.559  0.00  0.00    +0.004 A 
ATOM     21  C   UNL     1     -28.310 -15.062  13.764  0.00  0.00    +0.004 A 
ATOM     22  C   UNL     1     -29.056 -14.982  14.942  0.00  0.00    +0.049 A 
ATOM     23  C   UNL     1     -30.363 -14.454  14.921  0.00  0.00    +0.163 A 
BRANCH  18  24
ATOM     24  O   UNL     1     -32.219 -13.488  13.724  0.00  0.00    -0.488 OA
BRANCH  24  25
ATOM     25  C   UNL     1     -32.581 -12.127  13.484  0.00  0.00    +0.229 C 
BRANCH  25  27
ATOM     26  C   UNL     1     -33.706 -11.843  15.722  0.00  0.00    +0.007 C 
ATOM     27  C   UNL     1     -32.605 -11.337  14.796  0.00  0.00    +0.038 C 
ENDBRANCH  25  27
ENDBRANCH  24  25
ENDBRANCH  18  24
ENDBRANCH  17  23
ENDBRANCH  16  17
ENDBRANCH   1  16
TORSDOF 8
ENDMDL
MODEL 7
REMARK VINA RESULT:    -3.172      1.938      3.538
REMARK INTER + INTRA:          -6.803
REMARK INTER:                  -4.831
REMARK INTRA:                  -1.972
REMARK UNBOUND:                -2.147
REMARK  Name = 
REMARK  9 active torsions:
REMARK  status: ('A' for Active; 'I' for Inactive)
REMARK    1  A    between atoms: C_1  and  C_2
REMARK    2  A    between atoms: C_2  and  C_3
REMARK    3  A    between atoms: C_3  and  O_4
REMARK    4  A    between atoms: O_4  and  C_5
REMARK    5  A    between atoms: C_10  and  O_11
REMARK    6  A    between atoms: O_11  and  C_12
REMARK    7  A    between atoms: C_12  and  C_13
REMARK    8  A    between atoms: N_15  and  C_16
REMARK    9  A    between atoms: C_19  and  C_22
REMARK                            x       y       z     vdW  Elec       q    Type
REMARK                         _______ _______ _______ _____ _____    ______ ____
ROOT
ATOM      1  C   UNL     1     -29.461 -11.820  18.228  0.00  0.00    +0.255 C 
ATOM      2  O   UNL     1     -28.822 -10.966  18.900  0.00  0.00    -0.272 OA
ATOM      3  N   UNL     1     -30.873 -11.669  18.005  0.00  0.00    -0.283 N 
ATOM      4  H   UNL     1     -31.299 -12.212  17.220  0.00  0.00    +0.155 HD
ENDROOT
BRANCH   3   5
ATOM      5  C   UNL     1     -31.705 -10.732  18.709  0.00  0.00    +0.034 A 
ATOM      6  C   UNL     1     -32.709 -11.163  19.594  0.00  0.00    +0.024 A 
ATOM      7  C   UNL     1     -33.523 -10.233  20.249  0.00  0.00    +0.015 A 
ATOM      8  C   UNL     1     -33.361  -8.854  20.019  0.00  0.00    +0.037 A 
ATOM      9  C   UNL     1     -32.363  -8.429  19.124  0.00  0.00    +0.015 A 
ATOM     10  C   UNL     1     -31.552  -9.361  18.468  0.00  0.00    +0.024 A 
BRANCH   8  11
ATOM     11  C   UNL     1     -34.210  -7.853  20.709  0.00  0.00    +0.242 C 
ATOM     12  N   UNL     1     -35.062  -8.219  21.798  0.00  0.00    -0.325 N 
ATOM     13  O   UNL     1     -34.196  -6.653  20.325  0.00  0.00    -0.270 OA
ATOM     14  H   UNL     1     -35.604  -7.483  22.305  0.00  0.00    +0.145 HD
ATOM     15  H   UNL     1     -35.235  -9.216  22.052  0.00  0.00    +0.145 HD
ENDBRANCH   8  11
ENDBRANCH   3   5
BRANCH   1  16
ATOM     16  C   UNL     1     -28.723 -12.944  17.577  0.00  0.00    +0.325 C 
BRANCH  16  17
ATOM     17  O   UNL     1     -29.661 -13.832  16.976  0.00  0.00    -0.479 OA
BRANCH  17  23
ATOM     18  C   UNL     1     -30.839 -13.460  14.905  0.00  0.00    +0.162 A 
ATOM     19  C   UNL     1     -30.976 -13.676  13.518  0.00  0.00    +0.049 A 
ATOM     20  C   UNL     1     -30.054 -14.471  12.834  0.00  0.00    +0.004 A 
ATOM     21  C   UNL     1     -28.993 -15.062  13.520  0.00  0.00    +0.004 A 
ATOM     22  C   UNL     1     -28.848 -14.861  14.894  0.00  0.00    +0.049 A 
ATOM     23  C   UNL     1     -29.771 -14.059  15.595  0.00  0.00    +0.163 A 
BRANCH  18  24
ATOM     24  O   UNL     1     -31.741 -12.671  15.638  0.00  0.00    -0.488 OA
BRANCH  24  25
ATOM     25  C   UNL     1     -32.955 -12.108  15.137  0.00  0.00    +0.229 C 
BRANCH  25  27
ATOM     26  C   UNL     1     -34.008  -9.846  15.499  0.00  0.00    +0.007 C 
ATOM     27  C   UNL     1     -32.805 -10.597  14.937  0.00  0.00    +0.038 C 
ENDBRANCH  25  27
ENDBRANCH  24  25
ENDBRANCH  18  24
ENDBRANCH  17  23
ENDBRANCH  16  17
ENDBRANCH   1  16
TORSDOF 8
ENDMDL
MODEL 8
REMARK VINA RESULT:    -1.453      2.867      6.500
REMARK INTER + INTRA:          -4.280
REMARK INTER:                  -3.703
REMARK INTRA:                  -0.577
REMARK UNBOUND:                -2.147
REMARK  Name = 
REMARK  9 active torsions:
REMARK  status: ('A' for Active; 'I' for Inactive)
REMARK    1  A    between atoms: C_1  and  C_2
REMARK    2  A    between atoms: C_2  and  C_3
REMARK    3  A    between atoms: C_3  and  O_4
REMARK    4  A    between atoms: O_4  and  C_5
REMARK    5  A    between atoms: C_10  and  O_11
REMARK    6  A    between atoms: O_11  and  C_12
REMARK    7  A    between atoms: C_12  and  C_13
REMARK    8  A    between atoms: N_15  and  C_16
REMARK    9  A    between atoms: C_19  and  C_22
REMARK                            x       y       z     vdW  Elec       q    Type
REMARK                         _______ _______ _______ _____ _____    ______ ____
ROOT
ATOM      1  C   UNL     1     -29.650 -10.563  17.056  0.00  0.00    +0.255 C 
ATOM      2  O   UNL     1     -30.040  -9.473  16.556  0.00  0.00    -0.272 OA
ATOM      3  N   UNL     1     -30.039 -11.817  16.473  0.00  0.00    -0.283 N 
ATOM      4  H   UNL     1     -29.474 -12.662  16.722  0.00  0.00    +0.155 HD
ENDROOT
BRANCH   3   5
ATOM      5  C   UNL     1     -31.070 -11.962  15.483  0.00  0.00    +0.034 A 
ATOM      6  C   UNL     1     -32.260 -11.216  15.547  0.00  0.00    +0.024 A 
ATOM      7  C   UNL     1     -33.259 -11.392  14.584  0.00  0.00    +0.015 A 
ATOM      8  C   UNL     1     -33.097 -12.330  13.548  0.00  0.00    +0.037 A 
ATOM      9  C   UNL     1     -31.909 -13.081  13.494  0.00  0.00    +0.015 A 
ATOM     10  C   UNL     1     -30.912 -12.905  14.459  0.00  0.00    +0.024 A 
BRANCH   8  11
ATOM     11  C   UNL     1     -34.142 -12.525  12.515  0.00  0.00    +0.242 C 
ATOM     12  N   UNL     1     -35.052 -11.478  12.163  0.00  0.00    -0.325 N 
ATOM     13  O   UNL     1     -34.247 -13.641  11.937  0.00  0.00    -0.270 OA
ATOM     14  H   UNL     1     -35.739 -11.624  11.390  0.00  0.00    +0.145 HD
ATOM     15  H   UNL     1     -35.116 -10.596  12.715  0.00  0.00    +0.145 HD
ENDBRANCH   8  11
ENDBRANCH   3   5
BRANCH   1  16
ATOM     16  C   UNL     1     -28.698 -10.542  18.207  0.00  0.00    +0.325 C 
BRANCH  16  17
ATOM     17  O   UNL     1     -29.200 -11.382  19.243  0.00  0.00    -0.479 OA
BRANCH  17  23
ATOM     18  C   UNL     1     -29.046 -13.042  20.986  0.00  0.00    +0.162 A 
ATOM     19  C   UNL     1     -28.304 -14.010  21.692  0.00  0.00    +0.049 A 
ATOM     20  C   UNL     1     -26.981 -14.282  21.338  0.00  0.00    +0.004 A 
ATOM     21  C   UNL     1     -26.382 -13.593  20.283  0.00  0.00    +0.004 A 
ATOM     22  C   UNL     1     -27.104 -12.628  19.578  0.00  0.00    +0.049 A 
ATOM     23  C   UNL     1     -28.440 -12.345  19.926  0.00  0.00    +0.163 A 
BRANCH  18  24
ATOM     24  O   UNL     1     -30.378 -12.730  21.307  0.00  0.00    -0.488 OA
BRANCH  24  25
ATOM     25  C   UNL     1     -30.865 -11.443  21.688  0.00  0.00    +0.229 C 
BRANCH  25  27
ATOM     26  C   UNL     1     -32.519 -11.780  19.815  0.00  0.00    +0.007 C 
ATOM     27  C   UNL     1     -32.317 -11.261  21.235  0.00  0.00    +0.038 C 
ENDBRANCH  25  27
ENDBRANCH  24  25
ENDBRANCH  18  24
ENDBRANCH  17  23
ENDBRANCH  16  17
ENDBRANCH   1  16
TORSDOF 8
ENDMDL
