MODEL 1
REMARK VINA RESULT:    -3.621      0.000      0.000
REMARK INTER + INTRA:          -5.129
REMARK INTER:                  -4.468
REMARK INTRA:                  -0.661
REMARK UNBOUND:                -0.661
REMARK  Name = 
REMARK  6 active torsions:
REMARK  status: ('A' for Active; 'I' for Inactive)
REMARK    1  A    between atoms: C_1  and  C_2
REMARK    2  A    between atoms: C_2  and  C_3
REMARK    3  A    between atoms: C_3  and  C_4
REMARK    4  A    between atoms: C_3  and  N_6
REMARK    5  A    between atoms: C_4  and  C_5
REMARK    6  A    between atoms: C_10  and  N_14
REMARK                            x       y       z     vdW  Elec       q    Type
REMARK                         _______ _______ _______ _____ _____    ______ ____
ROOT
ATOM      1  N   UNL     1     -29.018 -14.260  16.611  0.00  0.00    -0.311 N 
ATOM      2  C   UNL     1     -29.170 -13.159  17.516  0.00  0.00    +0.217 A 
ATOM      3  N   UNL     1     -29.600 -11.949  17.071  0.00  0.00    -0.221 NA
ATOM      4  C   UNL     1     -29.748 -10.901  17.919  0.00  0.00    +0.150 A 
ATOM      5  C   UNL     1     -29.470 -11.051  19.284  0.00  0.00    +0.184 A 
ATOM      6  C   UNL     1     -28.998 -12.307  19.725  0.00  0.00    +0.152 A 
ATOM      7  N   UNL     1     -28.593 -12.531  21.079  0.00  0.00    -0.341 N 
ATOM      8  N   UNL     1     -28.871 -13.323  18.830  0.00  0.00    -0.198 NA
ATOM      9  H   UNL     1     -28.705 -15.177  17.004  0.00  0.00    +0.149 HD
ATOM     10  H   UNL     1     -28.324 -13.491  21.386  0.00  0.00    +0.144 HD
ATOM     11  H   UNL     1     -28.438 -11.747  21.749  0.00  0.00    +0.144 HD
ENDROOT
BRANCH   5  12
ATOM     12  N   UNL     1     -29.695  -9.952  20.182  0.00  0.00    +0.061 N 
ATOM     13  O   UNL     1     -29.949  -8.697  19.678  0.00  0.00    -0.126 OA
ATOM     14  O   UNL     1     -29.875 -10.159  21.400  0.00  0.00    -0.126 OA
ENDBRANCH   5  12
BRANCH   1  15
ATOM     15  C   UNL     1     -29.319 -14.148  15.178  0.00  0.00    +0.073 C 
BRANCH  15  17
ATOM     16  C   UNL     1     -28.117 -14.538  12.952  0.00  0.00    +0.006 C 
ATOM     17  C   UNL     1     -28.354 -15.059  14.369  0.00  0.00    +0.019 C 
ENDBRANCH  15  17
BRANCH  15  18
ATOM     18  C   UNL     1     -30.803 -14.508  14.936  0.00  0.00    +0.019 C 
ATOM     19  C   UNL     1     -31.588 -13.393  14.247  0.00  0.00    +0.006 C 
ENDBRANCH  15  18
ENDBRANCH   1  15
TORSDOF 4
ENDMDL
MODEL 2
REMARK VINA RESULT:    -3.616      3.465      4.746
REMARK INTER + INTRA:          -5.123
REMARK INTER:                  -4.596
REMARK INTRA:                  -0.527
REMARK UNBOUND:                -0.661
REMARK  Name = 
REMARK  6 active torsions:
REMARK  status: ('A' for Active; 'I' for Inactive)
REMARK    1  A    between atoms: C_1  and  C_2
REMARK    2  A    between atoms: C_2  and  C_3
REMARK    3  A    between atoms: C_3  and  C_4
REMARK    4  A    between atoms: C_3  and  N_6
REMARK    5  A    between atoms: C_4  and  C_5
REMARK    6  A    between atoms: C_10  and  N_14
REMARK                            x       y       z     vdW  Elec       q    Type
REMARK                         _______ _______ _______ _____ _____    ______ ____
ROOT
ATOM      1  N   UNL     1     -31.230 -13.139  20.159  0.00  0.00    -0.311 N 
ATOM      2  C   UNL     1     -29.797 -13.140  20.157  0.00  0.00    +0.217 A 
ATOM      3  N   UNL     1     -29.104 -12.307  19.338  0.00  0.00    -0.221 NA
ATOM      4  C   UNL     1     -27.747 -12.299  19.329  0.00  0.00    +0.150 A 
ATOM      5  C   UNL     1     -27.029 -13.150  20.181  0.00  0.00    +0.184 A 
ATOM      6  C   UNL     1     -27.765 -14.028  21.006  0.00  0.00    +0.152 A 
ATOM      7  N   UNL     1     -27.125 -15.002  21.835  0.00  0.00    -0.341 N 
ATOM      8  N   UNL     1     -29.125 -13.991  20.974  0.00  0.00    -0.198 NA
ATOM      9  H   UNL     1     -31.719 -13.783  20.822  0.00  0.00    +0.149 HD
ATOM     10  H   UNL     1     -27.697 -15.581  22.489  0.00  0.00    +0.144 HD
ATOM     11  H   UNL     1     -26.117 -15.246  21.730  0.00  0.00    +0.144 HD
ENDROOT
BRANCH   5  12
ATOM     12  N   UNL     1     -25.595 -13.084  20.209  0.00  0.00    +0.061 N 
ATOM     13  O   UNL     1     -24.938 -12.126  19.470  0.00  0.00    -0.126 OA
ATOM     14  O   UNL     1     -24.950 -13.739  21.054  0.00  0.00    -0.126 OA
ENDBRANCH   5  12
BRANCH   1  15
ATOM     15  C   UNL     1     -32.018 -12.249  19.296  0.00  0.00    +0.073 C 
BRANCH  15  17
ATOM     16  C   UNL     1     -31.693 -13.481  17.076  0.00  0.00    +0.006 C 
ATOM     17  C   UNL     1     -32.687 -13.075  18.164  0.00  0.00    +0.019 C 
ENDBRANCH  15  17
BRANCH  15  18
ATOM     18  C   UNL     1     -33.054 -11.488  20.156  0.00  0.00    +0.019 C 
ATOM     19  C   UNL     1     -32.606 -10.075  20.527  0.00  0.00    +0.006 C 
ENDBRANCH  15  18
ENDBRANCH   1  15
TORSDOF 4
ENDMDL
MODEL 3
REMARK VINA RESULT:    -3.541      2.206      3.221
REMARK INTER + INTRA:          -5.030
REMARK INTER:                  -4.370
REMARK INTRA:                  -0.659
REMARK UNBOUND:                -0.661
REMARK  Name = 
REMARK  6 active torsions:
REMARK  status: ('A' for Active; 'I' for Inactive)
REMARK    1  A    between atoms: C_1  and  C_2
REMARK    2  A    between atoms: C_2  and  C_3
REMARK    3  A    between atoms: C_3  and  C_4
REMARK    4  A    between atoms: C_3  and  N_6
REMARK    5  A    between atoms: C_4  and  C_5
REMARK    6  A    between atoms: C_10  and  N_14
REMARK                            x       y       z     vdW  Elec       q    Type
REMARK                         _______ _______ _______ _____ _____    ______ ____
ROOT
ATOM      1  N   UNL     1     -31.692 -12.878  14.783  0.00  0.00    -0.311 N 
ATOM      2  C   UNL     1     -30.931 -12.437  15.914  0.00  0.00    +0.217 A 
ATOM      3  N   UNL     1     -30.727 -11.113  16.140  0.00  0.00    -0.221 NA
ATOM      4  C   UNL     1     -30.008 -10.684  17.207  0.00  0.00    +0.150 A 
ATOM      5  C   UNL     1     -29.467 -11.607  18.112  0.00  0.00    +0.184 A 
ATOM      6  C   UNL     1     -29.665 -12.980  17.848  0.00  0.00    +0.152 A 
ATOM      7  N   UNL     1     -29.069 -14.000  18.656  0.00  0.00    -0.341 N 
ATOM      8  N   UNL     1     -30.396 -13.352  16.763  0.00  0.00    -0.198 NA
ATOM      9  H   UNL     1     -31.840 -13.906  14.664  0.00  0.00    +0.149 HD
ATOM     10  H   UNL     1     -29.300 -15.002  18.477  0.00  0.00    +0.144 HD
ATOM     11  H   UNL     1     -28.315 -13.793  19.345  0.00  0.00    +0.144 HD
ENDROOT
BRANCH   5  12
ATOM     12  N   UNL     1     -28.765 -11.137  19.274  0.00  0.00    +0.061 N 
ATOM     13  O   UNL     1     -29.405 -10.322  20.179  0.00  0.00    -0.126 OA
ATOM     14  O   UNL     1     -27.659 -11.628  19.584  0.00  0.00    -0.126 OA
ENDBRANCH   5  12
BRANCH   1  15
ATOM     15  C   UNL     1     -32.293 -11.942  13.824  0.00  0.00    +0.073 C 
BRANCH  15  17
ATOM     16  C   UNL     1     -33.517 -13.164  11.938  0.00  0.00    +0.006 C 
ATOM     17  C   UNL     1     -32.201 -12.532  12.390  0.00  0.00    +0.019 C 
ENDBRANCH  15  17
BRANCH  15  18
ATOM     18  C   UNL     1     -33.752 -11.645  14.243  0.00  0.00    +0.019 C 
ATOM     19  C   UNL     1     -33.987 -10.179  14.604  0.00  0.00    +0.006 C 
ENDBRANCH  15  18
ENDBRANCH   1  15
TORSDOF 4
ENDMDL
MODEL 4
REMARK VINA RESULT:    -3.520      1.970      2.747
REMARK INTER + INTRA:          -5.004
REMARK INTER:                  -4.516
REMARK INTRA:                  -0.489
REMARK UNBOUND:                -0.661
REMARK  Name = 
REMARK  6 active torsions:
REMARK  status: ('A' for Active; 'I' for Inactive)
REMARK    1  A    between atoms: C_1  and  C_2
REMARK    2  A    between atoms: C_2  and  C_3
REMARK    3  A    between atoms: C_3  and  C_4
REMARK    4  A    between atoms: C_3  and  N_6
REMARK    5  A    between atoms: C_4  and  C_5
REMARK    6  A    between atoms: C_10  and  N_14
REMARK                            x       y       z     vdW  Elec       q    Type
REMARK                         _______ _______ _______ _____ _____    ______ ____
ROOT
ATOM      1  N   UNL     1     -29.079 -14.025  15.243  0.00  0.00    -0.311 N 
ATOM      2  C   UNL     1     -29.290 -13.750  16.634  0.00  0.00    +0.217 A 
ATOM      3  N   UNL     1     -30.521 -13.889  17.190  0.00  0.00    -0.221 NA
ATOM      4  C   UNL     1     -30.731 -13.632  18.505  0.00  0.00    +0.150 A 
ATOM      5  C   UNL     1     -29.669 -13.226  19.325  0.00  0.00    +0.184 A 
ATOM      6  C   UNL     1     -28.402 -13.060  18.725  0.00  0.00    +0.152 A 
ATOM      7  N   UNL     1     -27.279 -12.555  19.454  0.00  0.00    -0.341 N 
ATOM      8  N   UNL     1     -28.249 -13.335  17.401  0.00  0.00    -0.198 NA
ATOM      9  H   UNL     1     -28.110 -13.924  14.865  0.00  0.00    +0.149 HD
ATOM     10  H   UNL     1     -26.341 -12.519  18.999  0.00  0.00    +0.144 HD
ATOM     11  H   UNL     1     -27.381 -12.105  20.389  0.00  0.00    +0.144 HD
ENDROOT
BRANCH   5  12
ATOM     12  N   UNL     1     -29.892 -13.022  20.729  0.00  0.00    +0.061 N 
ATOM     13  O   UNL     1     -28.894 -13.314  21.631  0.00  0.00    -0.126 OA
ATOM     14  O   UNL     1     -30.891 -12.386  21.123  0.00  0.00    -0.126 OA
ENDBRANCH   5  12
BRANCH   1  15
ATOM     15  C   UNL     1     -30.162 -14.473  14.356  0.00  0.00    +0.073 C 
BRANCH  15  17
ATOM     16  C   UNL     1     -31.797 -13.405  12.701  0.00  0.00    +0.006 C 
ATOM     17  C   UNL     1     -31.125 -13.288  14.069  0.00  0.00    +0.019 C 
ENDBRANCH  15  17
BRANCH  15  18
ATOM     18  C   UNL     1     -29.554 -15.060  13.061  0.00  0.00    +0.019 C 
ATOM     19  C   UNL     1     -28.070 -14.738  12.894  0.00  0.00    +0.006 C 
ENDBRANCH  15  18
ENDBRANCH   1  15
TORSDOF 4
ENDMDL
MODEL 5
REMARK VINA RESULT:    -3.492      1.853      2.422
REMARK INTER + INTRA:          -4.970
REMARK INTER:                  -4.316
REMARK INTRA:                  -0.654
REMARK UNBOUND:                -0.661
REMARK  Name = 
REMARK  6 active torsions:
REMARK  status: ('A' for Active; 'I' for Inactive)
REMARK    1  A    between atoms: C_1  and  C_2
REMARK    2  A    between atoms: C_2  and  C_3
REMARK    3  A    between atoms: C_3  and  C_4
REMARK    4  A    between atoms: C_3  and  N_6
REMARK    5  A    between atoms: C_4  and  C_5
REMARK    6  A    between atoms: C_10  and  N_14
REMARK                            x       y       z     vdW  Elec       q    Type
REMARK                         _______ _______ _______ _____ _____    ______ ____
ROOT
ATOM      1  N   UNL     1     -31.499 -13.791  15.014  0.00  0.00    -0.311 N 
ATOM      2  C   UNL     1     -31.033 -13.158  16.212  0.00  0.00    +0.217 A 
ATOM      3  N   UNL     1     -30.455 -11.929  16.168  0.00  0.00    -0.221 NA
ATOM      4  C   UNL     1     -30.011 -11.322  17.296  0.00  0.00    +0.150 A 
ATOM      5  C   UNL     1     -30.151 -11.949  18.541  0.00  0.00    +0.184 A 
ATOM      6  C   UNL     1     -30.729 -13.238  18.566  0.00  0.00    +0.152 A 
ATOM      7  N   UNL     1     -30.826 -14.001  19.772  0.00  0.00    -0.341 N 
ATOM      8  N   UNL     1     -31.159 -13.799  17.403  0.00  0.00    -0.198 NA
ATOM      9  H   UNL     1     -31.955 -14.728  15.101  0.00  0.00    +0.149 HD
ATOM     10  H   UNL     1     -31.328 -14.916  19.766  0.00  0.00    +0.144 HD
ATOM     11  H   UNL     1     -30.308 -13.739  20.638  0.00  0.00    +0.144 HD
ENDROOT
BRANCH   5  12
ATOM     12  N   UNL     1     -29.738 -11.266  19.735  0.00  0.00    +0.061 N 
ATOM     13  O   UNL     1     -29.261 -11.985  20.807  0.00  0.00    -0.126 OA
ATOM     14  O   UNL     1     -29.603 -10.024  19.736  0.00  0.00    -0.126 OA
ENDBRANCH   5  12
BRANCH   1  15
ATOM     15  C   UNL     1     -31.388 -13.157  13.694  0.00  0.00    +0.073 C 
BRANCH  15  17
ATOM     16  C   UNL     1     -29.310 -14.441  12.929  0.00  0.00    +0.006 C 
ATOM     17  C   UNL     1     -30.792 -14.168  12.676  0.00  0.00    +0.019 C 
ENDBRANCH  15  17
BRANCH  15  18
ATOM     18  C   UNL     1     -32.777 -12.637  13.257  0.00  0.00    +0.019 C 
ATOM     19  C   UNL     1     -33.257 -13.240  11.938  0.00  0.00    +0.006 C 
ENDBRANCH  15  18
ENDBRANCH   1  15
TORSDOF 4
ENDMDL
MODEL 6
REMARK VINA RESULT:    -3.421      2.943      4.214
REMARK INTER + INTRA:          -4.881
REMARK INTER:                  -4.228
REMARK INTRA:                  -0.653
REMARK UNBOUND:                -0.661
REMARK  Name = 
REMARK  6 active torsions:
REMARK  status: ('A' for Active; 'I' for Inactive)
REMARK    1  A    between atoms: C_1  and  C_2
REMARK    2  A    between atoms: C_2  and  C_3
REMARK    3  A    between atoms: C_3  and  C_4
REMARK    4  A    between atoms: C_3  and  N_6
REMARK    5  A    between atoms: C_4  and  C_5
REMARK    6  A    between atoms: C_10  and  N_14
REMARK                            x       y       z     vdW  Elec       q    Type
REMARK                         _______ _______ _______ _____ _____    ______ ____
ROOT
ATOM      1  N   UNL     1     -33.033 -12.667  14.840  0.00  0.00    -0.311 N 
ATOM      2  C   UNL     1     -31.913 -12.576  15.729  0.00  0.00    +0.217 A 
ATOM      3  N   UNL     1     -31.241 -11.405  15.882  0.00  0.00    -0.221 NA
ATOM      4  C   UNL     1     -30.179 -11.309  16.720  0.00  0.00    +0.150 A 
ATOM      5  C   UNL     1     -29.759 -12.422  17.461  0.00  0.00    +0.184 A 
ATOM      6  C   UNL     1     -30.451 -13.638  17.270  0.00  0.00    +0.152 A 
ATOM      7  N   UNL     1     -30.037 -14.852  17.904  0.00  0.00    -0.341 N 
ATOM      8  N   UNL     1     -31.510 -13.676  16.417  0.00  0.00    -0.198 NA
ATOM      9  H   UNL     1     -33.531 -13.584  14.772  0.00  0.00    +0.149 HD
ATOM     10  H   UNL     1     -30.618 -15.713  17.801  0.00  0.00    +0.144 HD
ATOM     11  H   UNL     1     -29.110 -14.947  18.370  0.00  0.00    +0.144 HD
ENDROOT
BRANCH   5  12
ATOM     12  N   UNL     1     -28.676 -12.288  18.395  0.00  0.00    +0.061 N 
ATOM     13  O   UNL     1     -27.746 -13.294  18.515  0.00  0.00    -0.126 OA
ATOM     14  O   UNL     1     -28.446 -11.189  18.941  0.00  0.00    -0.126 OA
ENDBRANCH   5  12
BRANCH   1  15
ATOM     15  C   UNL     1     -33.516 -11.518  14.063  0.00  0.00    +0.073 C 
BRANCH  15  17
ATOM     16  C   UNL     1     -33.224 -13.038  12.024  0.00  0.00    +0.006 C 
ATOM     17  C   UNL     1     -34.119 -12.013  12.720  0.00  0.00    +0.019 C 
ENDBRANCH  15  17
BRANCH  15  18
ATOM     18  C   UNL     1     -34.540 -10.723  14.906  0.00  0.00    +0.019 C 
ATOM     19  C   UNL     1     -34.205  -9.236  15.012  0.00  0.00    +0.006 C 
ENDBRANCH  15  18
ENDBRANCH   1  15
TORSDOF 4
ENDMDL
MODEL 7
REMARK VINA RESULT:    -3.405      2.101      3.346
REMARK INTER + INTRA:          -4.862
REMARK INTER:                  -4.521
REMARK INTRA:                  -0.341
REMARK UNBOUND:                -0.661
REMARK  Name = 
REMARK  6 active torsions:
REMARK  status: ('A' for Active; 'I' for Inactive)
REMARK    1  A    between atoms: C_1  and  C_2
REMARK    2  A    between atoms: C_2  and  C_3
REMARK    3  A    between atoms: C_3  and  C_4
REMARK    4  A    between atoms: C_3  and  N_6
REMARK    5  A    between atoms: C_4  and  C_5
REMARK    6  A    between atoms: C_10  and  N_14
REMARK                            x       y       z     vdW  Elec       q    Type
REMARK                         _______ _______ _______ _____ _____    ______ ____
ROOT
ATOM      1  N   UNL     1     -31.888 -11.336  14.419  0.00  0.00    -0.311 N 
ATOM      2  C   UNL     1     -31.405 -10.879  15.689  0.00  0.00    +0.217 A 
ATOM      3  N   UNL     1     -30.384 -11.521  16.314  0.00  0.00    -0.221 NA
ATOM      4  C   UNL     1     -29.919 -11.097  17.515  0.00  0.00    +0.150 A 
ATOM      5  C   UNL     1     -30.479  -9.972  18.134  0.00  0.00    +0.184 A 
ATOM      6  C   UNL     1     -31.558  -9.333  17.484  0.00  0.00    +0.152 A 
ATOM      7  N   UNL     1     -32.261  -8.239  18.080  0.00  0.00    -0.341 N 
ATOM      8  N   UNL     1     -31.982  -9.801  16.279  0.00  0.00    -0.198 NA
ATOM      9  H   UNL     1     -32.662 -10.797  13.967  0.00  0.00    +0.149 HD
ATOM     10  H   UNL     1     -33.001  -7.743  17.537  0.00  0.00    +0.144 HD
ATOM     11  H   UNL     1     -32.149  -7.989  19.086  0.00  0.00    +0.144 HD
ENDROOT
BRANCH   5  12
ATOM     12  N   UNL     1     -29.933  -9.494  19.374  0.00  0.00    +0.061 N 
ATOM     13  O   UNL     1     -30.157  -8.195  19.767  0.00  0.00    -0.126 OA
ATOM     14  O   UNL     1     -29.442 -10.295  20.197  0.00  0.00    -0.126 OA
ENDBRANCH   5  12
BRANCH   1  15
ATOM     15  C   UNL     1     -31.313 -12.499  13.729  0.00  0.00    +0.073 C 
BRANCH  15  17
ATOM     16  C   UNL     1     -30.237 -14.668  14.559  0.00  0.00    +0.006 C 
ATOM     17  C   UNL     1     -31.467 -13.763  14.619  0.00  0.00    +0.019 C 
ENDBRANCH  15  17
BRANCH  15  18
ATOM     18  C   UNL     1     -31.994 -12.666  12.351  0.00  0.00    +0.019 C 
ATOM     19  C   UNL     1     -33.516 -12.769  12.442  0.00  0.00    +0.006 C 
ENDBRANCH  15  18
ENDBRANCH   1  15
TORSDOF 4
ENDMDL
MODEL 8
REMARK VINA RESULT:    -3.261      3.372      4.248
REMARK INTER + INTRA:          -4.685
REMARK INTER:                  -4.017
REMARK INTRA:                  -0.668
REMARK UNBOUND:                -0.661
REMARK  Name = 
REMARK  6 active torsions:
REMARK  status: ('A' for Active; 'I' for Inactive)
REMARK    1  A    between atoms: C_1  and  C_2
REMARK    2  A    between atoms: C_2  and  C_3
REMARK    3  A    between atoms: C_3  and  C_4
REMARK    4  A    between atoms: C_3  and  N_6
REMARK    5  A    between atoms: C_4  and  C_5
REMARK    6  A    between atoms: C_10  and  N_14
REMARK                            x       y       z     vdW  Elec       q    Type
REMARK                         _______ _______ _______ _____ _____    ______ ____
ROOT
ATOM      1  N   UNL     1     -31.691 -11.911  13.913  0.00  0.00    -0.311 N 
ATOM      2  C   UNL     1     -32.073 -11.609  15.261  0.00  0.00    +0.217 A 
ATOM      3  N   UNL     1     -32.554 -12.580  16.080  0.00  0.00    -0.221 NA
ATOM      4  C   UNL     1     -32.917 -12.305  17.358  0.00  0.00    +0.150 A 
ATOM      5  C   UNL     1     -32.791 -11.005  17.865  0.00  0.00    +0.184 A 
ATOM      6  C   UNL     1     -32.315 -10.002  16.992  0.00  0.00    +0.152 A 
ATOM      7  N   UNL     1     -32.244  -8.628  17.385  0.00  0.00    -0.341 N 
ATOM      8  N   UNL     1     -31.964 -10.336  15.721  0.00  0.00    -0.198 NA
ATOM      9  H   UNL     1     -31.307 -11.134  13.328  0.00  0.00    +0.149 HD
ATOM     10  H   UNL     1     -31.815  -7.927  16.741  0.00  0.00    +0.144 HD
ATOM     11  H   UNL     1     -32.715  -8.270  18.244  0.00  0.00    +0.144 HD
ENDROOT
BRANCH   5  12
ATOM     12  N   UNL     1     -33.116 -10.742  19.240  0.00  0.00    +0.061 N 
ATOM     13  O   UNL     1     -33.647  -9.524  19.598  0.00  0.00    -0.126 OA
ATOM     14  O   UNL     1     -33.126 -11.671  20.074  0.00  0.00    -0.126 OA
ENDBRANCH   5  12
BRANCH   1  15
ATOM     15  C   UNL     1     -31.789 -13.264  13.352  0.00  0.00    +0.073 C 
BRANCH  15  17
ATOM     16  C   UNL     1     -33.831 -12.581  11.967  0.00  0.00    +0.006 C 
ATOM     17  C   UNL     1     -32.433 -13.199  11.939  0.00  0.00    +0.019 C 
ENDBRANCH  15  17
BRANCH  15  18
ATOM     18  C   UNL     1     -30.385 -13.911  13.325  0.00  0.00    +0.019 C 
ATOM     19  C   UNL     1     -30.118 -14.817  14.525  0.00  0.00    +0.006 C 
ENDBRANCH  15  18
ENDBRANCH   1  15
TORSDOF 4
ENDMDL
