MODEL 1
REMARK VINA RESULT:    -4.670      0.000      0.000
REMARK INTER + INTRA:          -8.668
REMARK INTER:                  -6.444
REMARK INTRA:                  -2.223
REMARK UNBOUND:                -2.223
REMARK  Name = 
REMARK  7 active torsions:
REMARK  status: ('A' for Active; 'I' for Inactive)
REMARK    1  A    between atoms: C_2  and  O_3
REMARK    2  A    between atoms: C_2  and  C_4
REMARK    3  A    between atoms: C_4  and  C_5
REMARK    4  A    between atoms: C_4  and  N_12
REMARK    5  A    between atoms: C_5  and  C_6
REMARK    6  A    between atoms: N_12  and  S_13
REMARK    7  A    between atoms: S_13  and  C_16
REMARK                            x       y       z     vdW  Elec       q    Type
REMARK                         _______ _______ _______ _____ _____    ______ ____
ROOT
ATOM      1  N   UNL     1     -29.039 -13.965  19.033  0.00  0.00    -0.176 NA
ATOM      2  H   UNL     1     -30.079 -13.884  19.102  0.00  0.00    +0.149 HD
ENDROOT
BRANCH   1   3
ATOM      3  S   UNL     1     -28.571 -13.031  17.643  0.00  0.00    +0.059 S 
ATOM      4  O   UNL     1     -28.338 -13.952  16.479  0.00  0.00    -0.153 OA
ATOM      5  O   UNL     1     -27.294 -12.290  17.932  0.00  0.00    -0.153 OA
BRANCH   3   6
ATOM      6  C   UNL     1     -29.860 -11.901  17.238  0.00  0.00    +0.109 A 
ATOM      7  C   UNL     1     -29.644 -10.521  17.296  0.00  0.00    +0.032 A 
ATOM      8  C   UNL     1     -30.693  -9.638  17.035  0.00  0.00    +0.051 A 
ATOM      9  C   UNL     1     -31.966 -10.114  16.699  0.00  0.00    +0.162 A 
ATOM     10  O   UNL     1     -32.977  -9.163  16.522  0.00  0.00    -0.488 OA
ATOM     11  C   UNL     1     -33.952  -9.193  15.488  0.00  0.00    +0.232 C 
ATOM     12  C   UNL     1     -34.959 -10.314  15.704  0.00  0.00    +0.082 C 
ATOM     13  C   UNL     1     -34.344 -11.667  15.378  0.00  0.00    +0.232 C 
ATOM     14  O   UNL     1     -33.441 -12.085  16.393  0.00  0.00    -0.488 OA
ATOM     15  C   UNL     1     -32.188 -11.513  16.638  0.00  0.00    +0.164 A 
ATOM     16  C   UNL     1     -31.131 -12.388  16.918  0.00  0.00    +0.078 A 
ENDBRANCH   3   6
ENDBRANCH   1   3
BRANCH   1  17
ATOM     17  C   UNL     1     -28.378 -13.461  20.255  0.00  0.00    +0.189 C 
BRANCH  17  19
ATOM     18  O   UNL     1     -27.522 -15.062  21.821  0.00  0.00    -0.249 OA
ATOM     19  C   UNL     1     -27.375 -14.479  20.712  0.00  0.00    +0.324 C 
BRANCH  19  20
ATOM     20  O   UNL     1     -26.271 -14.768  19.916  0.00  0.00    -0.479 OA
ATOM     21  H   UNL     1     -25.339 -14.489  20.201  0.00  0.00    +0.295 HD
ENDBRANCH  19  20
ENDBRANCH  17  19
BRANCH  17  22
ATOM     22  C   UNL     1     -29.392 -13.186  21.388  0.00  0.00    +0.067 C 
BRANCH  22  23
ATOM     23  C   UNL     1     -30.252 -11.981  21.087  0.00  0.00    -0.042 A 
ATOM     24  C   UNL     1     -29.734 -10.683  21.199  0.00  0.00    +0.023 A 
ATOM     25  C   UNL     1     -30.554  -9.587  20.922  0.00  0.00    +0.111 A 
ATOM     26  N   UNL     1     -31.848  -9.779  20.549  0.00  0.00    -0.263 NA
ATOM     27  C   UNL     1     -32.378 -11.026  20.437  0.00  0.00    +0.111 A 
ATOM     28  C   UNL     1     -31.593 -12.149  20.706  0.00  0.00    +0.023 A 
ENDBRANCH  22  23
ENDBRANCH  17  22
ENDBRANCH   1  17
TORSDOF 7
ENDMDL
MODEL 2
REMARK VINA RESULT:    -4.606      2.242      6.888
REMARK INTER + INTRA:          -8.579
REMARK INTER:                  -6.896
REMARK INTRA:                  -1.683
REMARK UNBOUND:                -2.223
REMARK  Name = 
REMARK  7 active torsions:
REMARK  status: ('A' for Active; 'I' for Inactive)
REMARK    1  A    between atoms: C_2  and  O_3
REMARK    2  A    between atoms: C_2  and  C_4
REMARK    3  A    between atoms: C_4  and  C_5
REMARK    4  A    between atoms: C_4  and  N_12
REMARK    5  A    between atoms: C_5  and  C_6
REMARK    6  A    between atoms: N_12  and  S_13
REMARK    7  A    between atoms: S_13  and  C_16
REMARK                            x       y       z     vdW  Elec       q    Type
REMARK                         _______ _______ _______ _____ _____    ______ ____
ROOT
ATOM      1  N   UNL     1     -32.636 -10.953  18.490  0.00  0.00    -0.176 NA
ATOM      2  H   UNL     1     -32.470 -11.678  19.224  0.00  0.00    +0.149 HD
ENDROOT
BRANCH   1   3
ATOM      3  S   UNL     1     -31.243  -9.913  18.510  0.00  0.00    +0.059 S 
ATOM      4  O   UNL     1     -31.401  -8.888  19.597  0.00  0.00    -0.153 OA
ATOM      5  O   UNL     1     -31.121  -9.199  17.191  0.00  0.00    -0.153 OA
BRANCH   3   6
ATOM      6  C   UNL     1     -29.801 -10.874  18.825  0.00  0.00    +0.109 A 
ATOM      7  C   UNL     1     -28.639 -10.688  18.070  0.00  0.00    +0.032 A 
ATOM      8  C   UNL     1     -27.527 -11.502  18.288  0.00  0.00    +0.051 A 
ATOM      9  C   UNL     1     -27.549 -12.500  19.269  0.00  0.00    +0.162 A 
ATOM     10  O   UNL     1     -26.417 -13.317  19.374  0.00  0.00    -0.488 OA
ATOM     11  C   UNL     1     -25.824 -13.733  20.598  0.00  0.00    +0.232 C 
ATOM     12  C   UNL     1     -26.697 -14.747  21.323  0.00  0.00    +0.082 C 
ATOM     13  C   UNL     1     -27.903 -14.069  21.958  0.00  0.00    +0.232 C 
ATOM     14  O   UNL     1     -28.872 -13.714  20.981  0.00  0.00    -0.488 OA
ATOM     15  C   UNL     1     -28.724 -12.691  20.037  0.00  0.00    +0.164 A 
ATOM     16  C   UNL     1     -29.839 -11.879  19.797  0.00  0.00    +0.078 A 
ENDBRANCH   3   6
ENDBRANCH   1   3
BRANCH   1  17
ATOM     17  C   UNL     1     -32.819 -11.567  17.159  0.00  0.00    +0.189 C 
BRANCH  17  19
ATOM     18  O   UNL     1     -34.815 -12.137  15.958  0.00  0.00    -0.249 OA
ATOM     19  C   UNL     1     -34.224 -11.306  16.700  0.00  0.00    +0.324 C 
BRANCH  19  20
ATOM     20  O   UNL     1     -34.870 -10.134  17.080  0.00  0.00    -0.479 OA
ATOM     21  H   UNL     1     -35.766 -10.164  17.552  0.00  0.00    +0.295 HD
ENDBRANCH  19  20
ENDBRANCH  17  19
BRANCH  17  22
ATOM     22  C   UNL     1     -32.555 -13.089  17.184  0.00  0.00    +0.067 C 
BRANCH  22  23
ATOM     23  C   UNL     1     -31.446 -13.479  16.236  0.00  0.00    -0.042 A 
ATOM     24  C   UNL     1     -31.579 -13.280  14.854  0.00  0.00    +0.023 A 
ATOM     25  C   UNL     1     -30.541 -13.657  14.001  0.00  0.00    +0.111 A 
ATOM     26  N   UNL     1     -29.409 -14.216  14.507  0.00  0.00    -0.263 NA
ATOM     27  C   UNL     1     -29.254 -14.425  15.841  0.00  0.00    +0.111 A 
ATOM     28  C   UNL     1     -30.270 -14.064  16.730  0.00  0.00    +0.023 A 
ENDBRANCH  22  23
ENDBRANCH  17  22
ENDBRANCH   1  17
TORSDOF 7
ENDMDL
MODEL 3
REMARK VINA RESULT:    -4.280      0.872      1.939
REMARK INTER + INTRA:          -8.129
REMARK INTER:                  -5.918
REMARK INTRA:                  -2.211
REMARK UNBOUND:                -2.223
REMARK  Name = 
REMARK  7 active torsions:
REMARK  status: ('A' for Active; 'I' for Inactive)
REMARK    1  A    between atoms: C_2  and  O_3
REMARK    2  A    between atoms: C_2  and  C_4
REMARK    3  A    between atoms: C_4  and  C_5
REMARK    4  A    between atoms: C_4  and  N_12
REMARK    5  A    between atoms: C_5  and  C_6
REMARK    6  A    between atoms: N_12  and  S_13
REMARK    7  A    between atoms: S_13  and  C_16
REMARK                            x       y       z     vdW  Elec       q    Type
REMARK                         _______ _______ _______ _____ _____    ______ ____
ROOT
ATOM      1  N   UNL     1     -28.692 -13.952  19.074  0.00  0.00    -0.176 NA
ATOM      2  H   UNL     1     -29.692 -14.166  19.288  0.00  0.00    +0.149 HD
ENDROOT
BRANCH   1   3
ATOM      3  S   UNL     1     -28.691 -13.101  17.557  0.00  0.00    +0.059 S 
ATOM      4  O   UNL     1     -28.122 -13.990  16.488  0.00  0.00    -0.153 OA
ATOM      5  O   UNL     1     -27.833 -11.870  17.664  0.00  0.00    -0.153 OA
BRANCH   3   6
ATOM      6  C   UNL     1     -30.343 -12.665  17.131  0.00  0.00    +0.109 A 
ATOM      7  C   UNL     1     -31.330 -13.647  17.000  0.00  0.00    +0.032 A 
ATOM      8  C   UNL     1     -32.619 -13.293  16.599  0.00  0.00    +0.051 A 
ATOM      9  C   UNL     1     -32.949 -11.958  16.338  0.00  0.00    +0.162 A 
ATOM     10  O   UNL     1     -34.243 -11.699  15.873  0.00  0.00    -0.488 OA
ATOM     11  C   UNL     1     -35.061 -10.617  16.301  0.00  0.00    +0.232 C 
ATOM     12  C   UNL     1     -34.541  -9.286  15.778  0.00  0.00    +0.082 C 
ATOM     13  C   UNL     1     -33.297  -8.851  16.540  0.00  0.00    +0.232 C 
ATOM     14  O   UNL     1     -32.160  -9.612  16.155  0.00  0.00    -0.488 OA
ATOM     15  C   UNL     1     -31.951 -10.959  16.472  0.00  0.00    +0.164 A 
ATOM     16  C   UNL     1     -30.658 -11.330  16.859  0.00  0.00    +0.078 A 
ENDBRANCH   3   6
ENDBRANCH   1   3
BRANCH   1  17
ATOM     17  C   UNL     1     -28.077 -13.134  20.140  0.00  0.00    +0.189 C 
BRANCH  17  19
ATOM     18  O   UNL     1     -26.379 -13.543  21.781  0.00  0.00    -0.249 OA
ATOM     19  C   UNL     1     -26.871 -13.857  20.664  0.00  0.00    +0.324 C 
BRANCH  19  20
ATOM     20  O   UNL     1     -26.286 -14.866  19.906  0.00  0.00    -0.479 OA
ATOM     21  H   UNL     1     -25.456 -14.685  19.353  0.00  0.00    +0.295 HD
ENDBRANCH  19  20
ENDBRANCH  17  19
BRANCH  17  22
ATOM     22  C   UNL     1     -29.062 -12.859  21.298  0.00  0.00    +0.067 C 
BRANCH  22  23
ATOM     23  C   UNL     1     -30.146 -11.890  20.891  0.00  0.00    -0.042 A 
ATOM     24  C   UNL     1     -31.468 -12.324  20.711  0.00  0.00    +0.023 A 
ATOM     25  C   UNL     1     -32.448 -11.406  20.327  0.00  0.00    +0.111 A 
ATOM     26  N   UNL     1     -32.122 -10.101  20.128  0.00  0.00    -0.263 NA
ATOM     27  C   UNL     1     -30.849  -9.653  20.292  0.00  0.00    +0.111 A 
ATOM     28  C   UNL     1     -29.838 -10.538  20.673  0.00  0.00    +0.023 A 
ENDBRANCH  22  23
ENDBRANCH  17  22
ENDBRANCH   1  17
TORSDOF 7
ENDMDL
MODEL 4
REMARK VINA RESULT:    -3.863      1.772      2.216
REMARK INTER + INTRA:          -7.554
REMARK INTER:                  -6.042
REMARK INTRA:                  -1.511
REMARK UNBOUND:                -2.223
REMARK  Name = 
REMARK  7 active torsions:
REMARK  status: ('A' for Active; 'I' for Inactive)
REMARK    1  A    between atoms: C_2  and  O_3
REMARK    2  A    between atoms: C_2  and  C_4
REMARK    3  A    between atoms: C_4  and  C_5
REMARK    4  A    between atoms: C_4  and  N_12
REMARK    5  A    between atoms: C_5  and  C_6
REMARK    6  A    between atoms: N_12  and  S_13
REMARK    7  A    between atoms: S_13  and  C_16
REMARK                            x       y       z     vdW  Elec       q    Type
REMARK                         _______ _______ _______ _____ _____    ______ ____
ROOT
ATOM      1  N   UNL     1     -29.504 -13.412  19.037  0.00  0.00    -0.176 NA
ATOM      2  H   UNL     1     -30.507 -13.152  19.173  0.00  0.00    +0.149 HD
ENDROOT
BRANCH   1   3
ATOM      3  S   UNL     1     -29.040 -12.770  17.489  0.00  0.00    +0.059 S 
ATOM      4  O   UNL     1     -28.136 -13.749  16.794  0.00  0.00    -0.153 OA
ATOM      5  O   UNL     1     -28.295 -11.477  17.676  0.00  0.00    -0.153 OA
BRANCH   3   6
ATOM      6  C   UNL     1     -30.480 -12.514  16.508  0.00  0.00    +0.109 A 
ATOM      7  C   UNL     1     -31.554 -11.765  16.997  0.00  0.00    +0.032 A 
ATOM      8  C   UNL     1     -32.714 -11.626  16.234  0.00  0.00    +0.051 A 
ATOM      9  C   UNL     1     -32.816 -12.216  14.968  0.00  0.00    +0.162 A 
ATOM     10  O   UNL     1     -34.039 -12.086  14.300  0.00  0.00    -0.488 OA
ATOM     11  C   UNL     1     -34.184 -11.805  12.914  0.00  0.00    +0.232 C 
ATOM     12  C   UNL     1     -33.774 -12.995  12.059  0.00  0.00    +0.082 C 
ATOM     13  C   UNL     1     -32.260 -13.146  12.029  0.00  0.00    +0.232 C 
ATOM     14  O   UNL     1     -31.767 -13.671  13.255  0.00  0.00    -0.488 OA
ATOM     15  C   UNL     1     -31.729 -12.975  14.469  0.00  0.00    +0.164 A 
ATOM     16  C   UNL     1     -30.578 -13.122  15.251  0.00  0.00    +0.078 A 
ENDBRANCH   3   6
ENDBRANCH   1   3
BRANCH   1  17
ATOM     17  C   UNL     1     -28.655 -12.862  20.114  0.00  0.00    +0.189 C 
BRANCH  17  19
ATOM     18  O   UNL     1     -27.872 -14.372  21.803  0.00  0.00    -0.249 OA
ATOM     19  C   UNL     1     -27.756 -13.951  20.620  0.00  0.00    +0.324 C 
BRANCH  19  20
ATOM     20  O   UNL     1     -26.779 -14.486  19.785  0.00  0.00    -0.479 OA
ATOM     21  H   UNL     1     -25.836 -14.116  19.788  0.00  0.00    +0.295 HD
ENDBRANCH  19  20
ENDBRANCH  17  19
BRANCH  17  22
ATOM     22  C   UNL     1     -29.497 -12.299  21.281  0.00  0.00    +0.067 C 
BRANCH  22  23
ATOM     23  C   UNL     1     -30.515 -11.292  20.802  0.00  0.00    -0.042 A 
ATOM     24  C   UNL     1     -30.109 -10.065  20.257  0.00  0.00    +0.023 A 
ATOM     25  C   UNL     1     -31.073  -9.149  19.829  0.00  0.00    +0.111 A 
ATOM     26  N   UNL     1     -32.395  -9.446  19.940  0.00  0.00    -0.263 NA
ATOM     27  C   UNL     1     -32.817 -10.626  20.468  0.00  0.00    +0.111 A 
ATOM     28  C   UNL     1     -31.887 -11.569  20.911  0.00  0.00    +0.023 A 
ENDBRANCH  22  23
ENDBRANCH  17  22
ENDBRANCH   1  17
TORSDOF 7
ENDMDL
MODEL 5
REMARK VINA RESULT:    -3.842      2.110      7.009
REMARK INTER + INTRA:          -7.525
REMARK INTER:                  -5.516
REMARK INTRA:                  -2.009
REMARK UNBOUND:                -2.223
REMARK  Name = 
REMARK  7 active torsions:
REMARK  status: ('A' for Active; 'I' for Inactive)
REMARK    1  A    between atoms: C_2  and  O_3
REMARK    2  A    between atoms: C_2  and  C_4
REMARK    3  A    between atoms: C_4  and  C_5
REMARK    4  A    between atoms: C_4  and  N_12
REMARK    5  A    between atoms: C_5  and  C_6
REMARK    6  A    between atoms: N_12  and  S_13
REMARK    7  A    between atoms: S_13  and  C_16
REMARK                            x       y       z     vdW  Elec       q    Type
REMARK                         _______ _______ _______ _____ _____    ______ ____
ROOT
ATOM      1  N   UNL     1     -32.615 -10.245  17.270  0.00  0.00    -0.176 NA
ATOM      2  H   UNL     1     -32.758 -11.167  17.742  0.00  0.00    +0.149 HD
ENDROOT
BRANCH   1   3
ATOM      3  S   UNL     1     -31.082  -9.645  17.828  0.00  0.00    +0.059 S 
ATOM      4  O   UNL     1     -31.286  -8.332  18.529  0.00  0.00    -0.153 OA
ATOM      5  O   UNL     1     -30.162  -9.428  16.658  0.00  0.00    -0.153 OA
BRANCH   3   6
ATOM      6  C   UNL     1     -30.379 -10.801  18.956  0.00  0.00    +0.109 A 
ATOM      7  C   UNL     1     -31.167 -11.414  19.935  0.00  0.00    +0.032 A 
ATOM      8  C   UNL     1     -30.582 -12.278  20.863  0.00  0.00    +0.051 A 
ATOM      9  C   UNL     1     -29.211 -12.556  20.820  0.00  0.00    +0.162 A 
ATOM     10  O   UNL     1     -28.695 -13.376  21.829  0.00  0.00    -0.488 OA
ATOM     11  C   UNL     1     -27.742 -14.413  21.629  0.00  0.00    +0.232 C 
ATOM     12  C   UNL     1     -26.367 -13.850  21.299  0.00  0.00    +0.082 C 
ATOM     13  C   UNL     1     -26.324 -13.321  19.873  0.00  0.00    +0.232 C 
ATOM     14  O   UNL     1     -27.019 -12.086  19.756  0.00  0.00    -0.488 OA
ATOM     15  C   UNL     1     -28.409 -11.937  19.829  0.00  0.00    +0.164 A 
ATOM     16  C   UNL     1     -29.004 -11.060  18.915  0.00  0.00    +0.078 A 
ENDBRANCH   3   6
ENDBRANCH   1   3
BRANCH   1  17
ATOM     17  C   UNL     1     -32.624 -10.387  15.799  0.00  0.00    +0.189 C 
BRANCH  17  19
ATOM     18  O   UNL     1     -34.498  -9.926  14.377  0.00  0.00    -0.249 OA
ATOM     19  C   UNL     1     -33.687  -9.489  15.237  0.00  0.00    +0.324 C 
BRANCH  19  20
ATOM     20  O   UNL     1     -33.765  -8.164  15.655  0.00  0.00    -0.479 OA
ATOM     21  H   UNL     1     -33.187  -7.450  15.228  0.00  0.00    +0.295 HD
ENDBRANCH  19  20
ENDBRANCH  17  19
BRANCH  17  22
ATOM     22  C   UNL     1     -32.891 -11.845  15.361  0.00  0.00    +0.067 C 
BRANCH  22  23
ATOM     23  C   UNL     1     -31.887 -12.801  15.960  0.00  0.00    -0.042 A 
ATOM     24  C   UNL     1     -32.244 -13.648  17.019  0.00  0.00    +0.023 A 
ATOM     25  C   UNL     1     -31.292 -14.516  17.558  0.00  0.00    +0.111 A 
ATOM     26  N   UNL     1     -30.028 -14.539  17.059  0.00  0.00    -0.263 NA
ATOM     27  C   UNL     1     -29.652 -13.726  16.036  0.00  0.00    +0.111 A 
ATOM     28  C   UNL     1     -30.572 -12.841  15.469  0.00  0.00    +0.023 A 
ENDBRANCH  22  23
ENDBRANCH  17  22
ENDBRANCH   1  17
TORSDOF 7
ENDMDL
MODEL 6
REMARK VINA RESULT:    -3.743      2.630      7.658
REMARK INTER + INTRA:          -7.389
REMARK INTER:                  -6.438
REMARK INTRA:                  -0.951
REMARK UNBOUND:                -2.223
REMARK  Name = 
REMARK  7 active torsions:
REMARK  status: ('A' for Active; 'I' for Inactive)
REMARK    1  A    between atoms: C_2  and  O_3
REMARK    2  A    between atoms: C_2  and  C_4
REMARK    3  A    between atoms: C_4  and  C_5
REMARK    4  A    between atoms: C_4  and  N_12
REMARK    5  A    between atoms: C_5  and  C_6
REMARK    6  A    between atoms: N_12  and  S_13
REMARK    7  A    between atoms: S_13  and  C_16
REMARK                            x       y       z     vdW  Elec       q    Type
REMARK                         _______ _______ _______ _____ _____    ______ ____
ROOT
ATOM      1  N   UNL     1     -32.502 -10.765  17.329  0.00  0.00    -0.176 NA
ATOM      2  H   UNL     1     -32.505 -11.802  17.468  0.00  0.00    +0.149 HD
ENDROOT
BRANCH   1   3
ATOM      3  S   UNL     1     -30.890 -10.229  17.698  0.00  0.00    +0.059 S 
ATOM      4  O   UNL     1     -30.953  -8.890  18.375  0.00  0.00    -0.153 OA
ATOM      5  O   UNL     1     -30.096 -10.088  16.428  0.00  0.00    -0.153 OA
BRANCH   3   6
ATOM      6  C   UNL     1     -30.122 -11.389  18.779  0.00  0.00    +0.109 A 
ATOM      7  C   UNL     1     -30.892 -12.250  19.566  0.00  0.00    +0.032 A 
ATOM      8  C   UNL     1     -30.271 -13.119  20.465  0.00  0.00    +0.051 A 
ATOM      9  C   UNL     1     -28.876 -13.154  20.582  0.00  0.00    +0.162 A 
ATOM     10  O   UNL     1     -28.339 -14.002  21.556  0.00  0.00    -0.488 OA
ATOM     11  C   UNL     1     -27.195 -14.828  21.377  0.00  0.00    +0.232 C 
ATOM     12  C   UNL     1     -25.919 -14.002  21.304  0.00  0.00    +0.082 C 
ATOM     13  C   UNL     1     -25.808 -13.290  19.964  0.00  0.00    +0.232 C 
ATOM     14  O   UNL     1     -26.700 -12.185  19.889  0.00  0.00    -0.488 OA
ATOM     15  C   UNL     1     -28.092 -12.283  19.785  0.00  0.00    +0.164 A 
ATOM     16  C   UNL     1     -28.729 -11.405  18.899  0.00  0.00    +0.078 A 
ENDBRANCH   3   6
ENDBRANCH   1   3
BRANCH   1  17
ATOM     17  C   UNL     1     -32.874 -10.408  15.944  0.00  0.00    +0.189 C 
BRANCH  17  19
ATOM     18  O   UNL     1     -34.240  -8.681  14.996  0.00  0.00    -0.249 OA
ATOM     19  C   UNL     1     -33.507  -9.047  15.954  0.00  0.00    +0.324 C 
BRANCH  19  20
ATOM     20  O   UNL     1     -33.269  -8.181  17.016  0.00  0.00    -0.479 OA
ATOM     21  H   UNL     1     -33.971  -7.510  17.307  0.00  0.00    +0.295 HD
ENDBRANCH  19  20
ENDBRANCH  17  19
BRANCH  17  22
ATOM     22  C   UNL     1     -33.853 -11.432  15.327  0.00  0.00    +0.067 C 
BRANCH  22  23
ATOM     23  C   UNL     1     -33.229 -12.173  14.168  0.00  0.00    -0.042 A 
ATOM     24  C   UNL     1     -33.957 -12.411  12.993  0.00  0.00    +0.023 A 
ATOM     25  C   UNL     1     -33.357 -13.106  11.940  0.00  0.00    +0.111 A 
ATOM     26  N   UNL     1     -32.077 -13.548  12.055  0.00  0.00    -0.263 NA
ATOM     27  C   UNL     1     -31.349 -13.335  13.184  0.00  0.00    +0.111 A 
ATOM     28  C   UNL     1     -31.911 -12.647  14.261  0.00  0.00    +0.023 A 
ENDBRANCH  22  23
ENDBRANCH  17  22
ENDBRANCH   1  17
TORSDOF 7
ENDMDL
MODEL 7
REMARK VINA RESULT:    -3.693      2.552      4.758
REMARK INTER + INTRA:          -7.320
REMARK INTER:                  -4.737
REMARK INTRA:                  -2.583
REMARK UNBOUND:                -2.223
REMARK  Name = 
REMARK  7 active torsions:
REMARK  status: ('A' for Active; 'I' for Inactive)
REMARK    1  A    between atoms: C_2  and  O_3
REMARK    2  A    between atoms: C_2  and  C_4
REMARK    3  A    between atoms: C_4  and  C_5
REMARK    4  A    between atoms: C_4  and  N_12
REMARK    5  A    between atoms: C_5  and  C_6
REMARK    6  A    between atoms: N_12  and  S_13
REMARK    7  A    between atoms: S_13  and  C_16
REMARK                            x       y       z     vdW  Elec       q    Type
REMARK                         _______ _______ _______ _____ _____    ______ ____
ROOT
ATOM      1  N   UNL     1     -29.394 -12.178  17.378  0.00  0.00    -0.176 NA
ATOM      2  H   UNL     1     -29.262 -11.266  16.884  0.00  0.00    +0.149 HD
ENDROOT
BRANCH   1   3
ATOM      3  S   UNL     1     -29.319 -11.823  19.079  0.00  0.00    +0.059 S 
ATOM      4  O   UNL     1     -28.107 -10.982  19.361  0.00  0.00    -0.153 OA
ATOM      5  O   UNL     1     -29.209 -13.103  19.862  0.00  0.00    -0.153 OA
BRANCH   3   6
ATOM      6  C   UNL     1     -30.764 -10.934  19.553  0.00  0.00    +0.109 A 
ATOM      7  C   UNL     1     -31.793 -11.566  20.258  0.00  0.00    +0.032 A 
ATOM      8  C   UNL     1     -32.959 -10.865  20.570  0.00  0.00    +0.051 A 
ATOM      9  C   UNL     1     -33.112  -9.524  20.199  0.00  0.00    +0.162 A 
ATOM     10  O   UNL     1     -34.339  -8.918  20.489  0.00  0.00    -0.488 OA
ATOM     11  C   UNL     1     -34.497  -7.600  20.998  0.00  0.00    +0.232 C 
ATOM     12  C   UNL     1     -34.159  -6.552  19.947  0.00  0.00    +0.082 C 
ATOM     13  C   UNL     1     -32.654  -6.460  19.738  0.00  0.00    +0.232 C 
ATOM     14  O   UNL     1     -32.163  -7.571  18.999  0.00  0.00    -0.488 OA
ATOM     15  C   UNL     1     -32.071  -8.880  19.485  0.00  0.00    +0.164 A 
ATOM     16  C   UNL     1     -30.913  -9.599  19.164  0.00  0.00    +0.078 A 
ENDBRANCH   3   6
ENDBRANCH   1   3
BRANCH   1  17
ATOM     17  C   UNL     1     -30.686 -12.800  17.024  0.00  0.00    +0.189 C 
BRANCH  17  19
ATOM     18  O   UNL     1     -30.604 -14.808  15.717  0.00  0.00    -0.249 OA
ATOM     19  C   UNL     1     -30.476 -14.276  16.852  0.00  0.00    +0.324 C 
BRANCH  19  20
ATOM     20  O   UNL     1     -30.155 -15.062  17.955  0.00  0.00    -0.479 OA
ATOM     21  H   UNL     1     -30.780 -15.121  18.750  0.00  0.00    +0.295 HD
ENDBRANCH  19  20
ENDBRANCH  17  19
BRANCH  17  22
ATOM     22  C   UNL     1     -31.276 -12.206  15.726  0.00  0.00    +0.067 C 
BRANCH  22  23
ATOM     23  C   UNL     1     -32.462 -11.314  16.008  0.00  0.00    -0.042 A 
ATOM     24  C   UNL     1     -32.442  -9.958  15.650  0.00  0.00    +0.023 A 
ATOM     25  C   UNL     1     -33.550  -9.155  15.931  0.00  0.00    +0.111 A 
ATOM     26  N   UNL     1     -34.639  -9.685  16.549  0.00  0.00    -0.263 NA
ATOM     27  C   UNL     1     -34.684 -10.995  16.911  0.00  0.00    +0.111 A 
ATOM     28  C   UNL     1     -33.597 -11.833  16.651  0.00  0.00    +0.023 A 
ENDBRANCH  22  23
ENDBRANCH  17  22
ENDBRANCH   1  17
TORSDOF 7
ENDMDL
MODEL 8
REMARK VINA RESULT:    -3.580      2.861      7.162
REMARK INTER + INTRA:          -7.163
REMARK INTER:                  -4.543
REMARK INTRA:                  -2.620
REMARK UNBOUND:                -2.223
REMARK  Name = 
REMARK  7 active torsions:
REMARK  status: ('A' for Active; 'I' for Inactive)
REMARK    1  A    between atoms: C_2  and  O_3
REMARK    2  A    between atoms: C_2  and  C_4
REMARK    3  A    between atoms: C_4  and  C_5
REMARK    4  A    between atoms: C_4  and  N_12
REMARK    5  A    between atoms: C_5  and  C_6
REMARK    6  A    between atoms: N_12  and  S_13
REMARK    7  A    between atoms: S_13  and  C_16
REMARK                            x       y       z     vdW  Elec       q    Type
REMARK                         _______ _______ _______ _____ _____    ______ ____
ROOT
ATOM      1  N   UNL     1     -34.907  -8.806  17.963  0.00  0.00    -0.176 NA
ATOM      2  H   UNL     1     -35.308  -9.732  18.236  0.00  0.00    +0.149 HD
ENDROOT
BRANCH   1   3
ATOM      3  S   UNL     1     -33.842  -8.336  19.254  0.00  0.00    +0.059 S 
ATOM      4  O   UNL     1     -34.643  -8.122  20.507  0.00  0.00    -0.153 OA
ATOM      5  O   UNL     1     -33.148  -7.049  18.901  0.00  0.00    -0.153 OA
BRANCH   3   6
ATOM      6  C   UNL     1     -32.663  -9.615  19.532  0.00  0.00    +0.109 A 
ATOM      7  C   UNL     1     -33.004 -10.754  20.267  0.00  0.00    +0.032 A 
ATOM      8  C   UNL     1     -32.040 -11.728  20.534  0.00  0.00    +0.051 A 
ATOM      9  C   UNL     1     -30.730 -11.590  20.060  0.00  0.00    +0.162 A 
ATOM     10  O   UNL     1     -29.810 -12.577  20.432  0.00  0.00    -0.488 OA
ATOM     11  C   UNL     1     -28.838 -13.152  19.567  0.00  0.00    +0.232 C 
ATOM     12  C   UNL     1     -27.733 -12.161  19.234  0.00  0.00    +0.082 C 
ATOM     13  C   UNL     1     -28.222 -11.114  18.244  0.00  0.00    +0.232 C 
ATOM     14  O   UNL     1     -29.081 -10.170  18.869  0.00  0.00    -0.488 OA
ATOM     15  C   UNL     1     -30.381 -10.437  19.313  0.00  0.00    +0.164 A 
ATOM     16  C   UNL     1     -31.352  -9.460  19.067  0.00  0.00    +0.078 A 
ENDBRANCH   3   6
ENDBRANCH   1   3
BRANCH   1  17
ATOM     17  C   UNL     1     -34.178  -8.893  16.681  0.00  0.00    +0.189 C 
BRANCH  17  19
ATOM     18  O   UNL     1     -35.062  -7.988  14.645  0.00  0.00    -0.249 OA
ATOM     19  C   UNL     1     -34.616  -7.759  15.802  0.00  0.00    +0.324 C 
BRANCH  19  20
ATOM     20  O   UNL     1     -34.513  -6.449  16.259  0.00  0.00    -0.479 OA
ATOM     21  H   UNL     1     -34.489  -6.246  17.252  0.00  0.00    +0.295 HD
ENDBRANCH  19  20
ENDBRANCH  17  19
BRANCH  17  22
ATOM     22  C   UNL     1     -34.433 -10.236  15.962  0.00  0.00    +0.067 C 
BRANCH  22  23
ATOM     23  C   UNL     1     -33.253 -11.170  16.087  0.00  0.00    -0.042 A 
ATOM     24  C   UNL     1     -32.029 -10.867  15.473  0.00  0.00    +0.023 A 
ATOM     25  C   UNL     1     -30.957 -11.753  15.600  0.00  0.00    +0.111 A 
ATOM     26  N   UNL     1     -31.100 -12.902  16.312  0.00  0.00    -0.263 NA
ATOM     27  C   UNL     1     -32.276 -13.224  16.915  0.00  0.00    +0.111 A 
ATOM     28  C   UNL     1     -33.374 -12.367  16.811  0.00  0.00    +0.023 A 
ENDBRANCH  22  23
ENDBRANCH  17  22
ENDBRANCH   1  17
TORSDOF 7
ENDMDL
MODEL 9
REMARK VINA RESULT:    -3.553      2.852      4.557
REMARK INTER + INTRA:          -7.126
REMARK INTER:                  -4.880
REMARK INTRA:                  -2.246
REMARK UNBOUND:                -2.223
REMARK  Name = 
REMARK  7 active torsions:
REMARK  status: ('A' for Active; 'I' for Inactive)
REMARK    1  A    between atoms: C_2  and  O_3
REMARK    2  A    between atoms: C_2  and  C_4
REMARK    3  A    between atoms: C_4  and  C_5
REMARK    4  A    between atoms: C_4  and  N_12
REMARK    5  A    between atoms: C_5  and  C_6
REMARK    6  A    between atoms: N_12  and  S_13
REMARK    7  A    between atoms: S_13  and  C_16
REMARK                            x       y       z     vdW  Elec       q    Type
REMARK                         _______ _______ _______ _____ _____    ______ ____
ROOT
ATOM      1  N   UNL     1     -32.114 -13.723  15.522  0.00  0.00    -0.176 NA
ATOM      2  H   UNL     1     -32.748 -13.988  16.309  0.00  0.00    +0.149 HD
ENDROOT
BRANCH   1   3
ATOM      3  S   UNL     1     -32.578 -12.117  15.043  0.00  0.00    +0.059 S 
ATOM      4  O   UNL     1     -34.066 -12.068  14.840  0.00  0.00    -0.153 OA
ATOM      5  O   UNL     1     -31.905 -11.756  13.748  0.00  0.00    -0.153 OA
BRANCH   3   6
ATOM      6  C   UNL     1     -32.128 -10.978  16.309  0.00  0.00    +0.109 A 
ATOM      7  C   UNL     1     -30.921 -10.275  16.242  0.00  0.00    +0.032 A 
ATOM      8  C   UNL     1     -30.549  -9.425  17.285  0.00  0.00    +0.051 A 
ATOM      9  C   UNL     1     -31.377  -9.250  18.400  0.00  0.00    +0.162 A 
ATOM     10  O   UNL     1     -30.896  -8.435  19.431  0.00  0.00    -0.488 OA
ATOM     11  C   UNL     1     -31.672  -7.479  20.143  0.00  0.00    +0.232 C 
ATOM     12  C   UNL     1     -32.679  -8.153  21.063  0.00  0.00    +0.082 C 
ATOM     13  C   UNL     1     -33.839  -8.733  20.266  0.00  0.00    +0.232 C 
ATOM     14  O   UNL     1     -33.457  -9.916  19.578  0.00  0.00    -0.488 OA
ATOM     15  C   UNL     1     -32.602  -9.960  18.470  0.00  0.00    +0.164 A 
ATOM     16  C   UNL     1     -32.956 -10.822  17.426  0.00  0.00    +0.078 A 
ENDBRANCH   3   6
ENDBRANCH   1   3
BRANCH   1  17
ATOM     17  C   UNL     1     -30.696 -13.762  15.936  0.00  0.00    +0.189 C 
BRANCH  17  19
ATOM     18  O   UNL     1     -30.388 -14.694  13.749  0.00  0.00    -0.249 OA
ATOM     19  C   UNL     1     -29.916 -14.525  14.906  0.00  0.00    +0.324 C 
BRANCH  19  20
ATOM     20  O   UNL     1     -28.676 -15.062  15.235  0.00  0.00    -0.479 OA
ATOM     21  H   UNL     1     -28.239 -14.853  16.125  0.00  0.00    +0.295 HD
ENDBRANCH  19  20
ENDBRANCH  17  19
BRANCH  17  22
ATOM     22  C   UNL     1     -30.517 -14.425  17.320  0.00  0.00    +0.067 C 
BRANCH  22  23
ATOM     23  C   UNL     1     -29.933 -13.465  18.329  0.00  0.00    -0.042 A 
ATOM     24  C   UNL     1     -30.631 -13.145  19.503  0.00  0.00    +0.023 A 
ATOM     25  C   UNL     1     -30.070 -12.248  20.414  0.00  0.00    +0.111 A 
ATOM     26  N   UNL     1     -28.857 -11.689  20.164  0.00  0.00    -0.263 NA
ATOM     27  C   UNL     1     -28.160 -11.978  19.033  0.00  0.00    +0.111 A 
ATOM     28  C   UNL     1     -28.685 -12.868  18.093  0.00  0.00    +0.023 A 
ENDBRANCH  22  23
ENDBRANCH  17  22
ENDBRANCH   1  17
TORSDOF 7
ENDMDL
