MODEL 1
REMARK VINA RESULT:    -4.940      0.000      0.000
REMARK INTER + INTRA:          -6.421
REMARK INTER:                  -6.095
REMARK INTRA:                  -0.326
REMARK UNBOUND:                -0.326
REMARK  Name = 
REMARK  4 active torsions:
REMARK  status: ('A' for Active; 'I' for Inactive)
REMARK    1  A    between atoms: C_2  and  C_3
REMARK    2  A    between atoms: N_13  and  C_14
REMARK    3  A    between atoms: C_14  and  C_15
REMARK    4  A    between atoms: C_19  and  N_21
REMARK                            x       y       z     vdW  Elec       q    Type
REMARK                         _______ _______ _______ _____ _____    ______ ____
ROOT
ATOM      1  C   UNL     1     -27.282 -13.119  20.154  0.00  0.00    +0.052 A 
ATOM      2  C   UNL     1     -28.439 -13.638  20.749  0.00  0.00    +0.021 A 
ATOM      3  C   UNL     1     -29.701 -13.210  20.326  0.00  0.00    +0.029 A 
ATOM      4  C   UNL     1     -29.814 -12.261  19.306  0.00  0.00    +0.073 A 
ATOM      5  N   UNL     1     -31.040 -11.842  18.894  0.00  0.00    -0.232 NA
ATOM      6  C   UNL     1     -31.199 -10.918  17.906  0.00  0.00    +0.120 A 
ATOM      7  C   UNL     1     -30.062 -10.379  17.279  0.00  0.00    +0.044 A 
ATOM      8  C   UNL     1     -28.789 -10.788  17.681  0.00  0.00    +0.013 A 
ATOM      9  C   UNL     1     -28.651 -11.736  18.702  0.00  0.00    +0.002 A 
ATOM     10  C   UNL     1     -27.387 -12.168  19.130  0.00  0.00    +0.029 A 
ATOM     11  N   UNL     1     -32.533 -10.528  17.534  0.00  0.00    -0.325 N 
ATOM     12  H   UNL     1     -33.331 -11.036  17.976  0.00  0.00    +0.148 HD
ENDROOT
BRANCH   1  14
ATOM     13  N   UNL     1     -24.943 -13.921  20.946  0.00  0.00    -0.191 NA
ATOM     14  C   UNL     1     -25.985 -13.564  20.593  0.00  0.00    +0.099 C 
ENDBRANCH   1  14
BRANCH  11  15
ATOM     15  C   UNL     1     -32.854  -9.428  16.622  0.00  0.00    +0.138 C 
BRANCH  15  16
ATOM     16  C   UNL     1     -33.483  -9.952  15.358  0.00  0.00    -0.028 A 
ATOM     17  C   UNL     1     -34.487  -9.219  14.704  0.00  0.00    +0.005 A 
ATOM     18  C   UNL     1     -35.062  -9.707  13.530  0.00  0.00    +0.003 A 
ATOM     19  C   UNL     1     -34.639 -10.924  12.992  0.00  0.00    +0.033 A 
ATOM     20  C   UNL     1     -33.627 -11.668  13.621  0.00  0.00    +0.127 A 
ATOM     21  C   UNL     1     -33.050 -11.170  14.806  0.00  0.00    +0.038 A 
BRANCH  20  22
ATOM     22  N   UNL     1     -33.188 -12.919  13.062  0.00  0.00    +0.056 N 
ATOM     23  O   UNL     1     -33.939 -13.556  12.101  0.00  0.00    -0.126 OA
ATOM     24  O   UNL     1     -32.123 -13.450  13.441  0.00  0.00    -0.126 OA
ENDBRANCH  20  22
ENDBRANCH  15  16
ENDBRANCH  11  15
TORSDOF 4
ENDMDL
MODEL 2
REMARK VINA RESULT:    -4.316      4.540      6.145
REMARK INTER + INTRA:          -5.652
REMARK INTER:                  -5.394
REMARK INTRA:                  -0.258
REMARK UNBOUND:                -0.326
REMARK  Name = 
REMARK  4 active torsions:
REMARK  status: ('A' for Active; 'I' for Inactive)
REMARK    1  A    between atoms: C_2  and  C_3
REMARK    2  A    between atoms: N_13  and  C_14
REMARK    3  A    between atoms: C_14  and  C_15
REMARK    4  A    between atoms: C_19  and  N_21
REMARK                            x       y       z     vdW  Elec       q    Type
REMARK                         _______ _______ _______ _____ _____    ______ ____
ROOT
ATOM      1  C   UNL     1     -29.758 -14.172  13.829  0.00  0.00    +0.052 A 
ATOM      2  C   UNL     1     -29.696 -14.740  15.108  0.00  0.00    +0.021 A 
ATOM      3  C   UNL     1     -30.523 -14.266  16.130  0.00  0.00    +0.029 A 
ATOM      4  C   UNL     1     -31.417 -13.220  15.880  0.00  0.00    +0.073 A 
ATOM      5  N   UNL     1     -32.221 -12.755  16.873  0.00  0.00    -0.232 NA
ATOM      6  C   UNL     1     -33.105 -11.737  16.677  0.00  0.00    +0.120 A 
ATOM      7  C   UNL     1     -33.202 -11.146  15.405  0.00  0.00    +0.044 A 
ATOM      8  C   UNL     1     -32.388 -11.600  14.366  0.00  0.00    +0.013 A 
ATOM      9  C   UNL     1     -31.484 -12.644  14.593  0.00  0.00    +0.002 A 
ATOM     10  C   UNL     1     -30.652 -13.124  13.570  0.00  0.00    +0.029 A 
ATOM     11  N   UNL     1     -33.917 -11.305  17.783  0.00  0.00    -0.325 N 
ATOM     12  H   UNL     1     -33.859 -11.850  18.673  0.00  0.00    +0.148 HD
ENDROOT
BRANCH   1  14
ATOM     13  N   UNL     1     -28.217 -15.061  11.938  0.00  0.00    -0.191 NA
ATOM     14  C   UNL     1     -28.903 -14.665  12.780  0.00  0.00    +0.099 C 
ENDBRANCH   1  14
BRANCH  11  15
ATOM     15  C   UNL     1     -34.776 -10.120  17.772  0.00  0.00    +0.138 C 
BRANCH  15  16
ATOM     16  C   UNL     1     -34.056  -8.935  18.361  0.00  0.00    -0.028 A 
ATOM     17  C   UNL     1     -34.693  -7.688  18.453  0.00  0.00    +0.005 A 
ATOM     18  C   UNL     1     -34.023  -6.595  19.004  0.00  0.00    +0.003 A 
ATOM     19  C   UNL     1     -32.717  -6.736  19.477  0.00  0.00    +0.033 A 
ATOM     20  C   UNL     1     -32.064  -7.978  19.408  0.00  0.00    +0.127 A 
ATOM     21  C   UNL     1     -32.747  -9.077  18.849  0.00  0.00    +0.038 A 
BRANCH  20  22
ATOM     22  N   UNL     1     -30.720  -8.122  19.900  0.00  0.00    +0.056 N 
ATOM     23  O   UNL     1     -29.873  -9.062  19.357  0.00  0.00    -0.126 OA
ATOM     24  O   UNL     1     -30.299  -7.401  20.828  0.00  0.00    -0.126 OA
ENDBRANCH  20  22
ENDBRANCH  15  16
ENDBRANCH  11  15
TORSDOF 4
ENDMDL
MODEL 3
REMARK VINA RESULT:    -4.220      1.529      2.250
REMARK INTER + INTRA:          -5.533
REMARK INTER:                  -5.451
REMARK INTRA:                  -0.083
REMARK UNBOUND:                -0.326
REMARK  Name = 
REMARK  4 active torsions:
REMARK  status: ('A' for Active; 'I' for Inactive)
REMARK    1  A    between atoms: C_2  and  C_3
REMARK    2  A    between atoms: N_13  and  C_14
REMARK    3  A    between atoms: C_14  and  C_15
REMARK    4  A    between atoms: C_19  and  N_21
REMARK                            x       y       z     vdW  Elec       q    Type
REMARK                         _______ _______ _______ _____ _____    ______ ____
ROOT
ATOM      1  C   UNL     1     -27.307 -13.289  20.306  0.00  0.00    +0.052 A 
ATOM      2  C   UNL     1     -26.631 -12.379  19.483  0.00  0.00    +0.021 A 
ATOM      3  C   UNL     1     -27.335 -11.629  18.536  0.00  0.00    +0.029 A 
ATOM      4  C   UNL     1     -28.719 -11.784  18.407  0.00  0.00    +0.073 A 
ATOM      5  N   UNL     1     -29.406 -11.058  17.485  0.00  0.00    -0.232 NA
ATOM      6  C   UNL     1     -30.753 -11.176  17.321  0.00  0.00    +0.120 A 
ATOM      7  C   UNL     1     -31.468 -12.074  18.134  0.00  0.00    +0.044 A 
ATOM      8  C   UNL     1     -30.790 -12.836  19.088  0.00  0.00    +0.013 A 
ATOM      9  C   UNL     1     -29.405 -12.699  19.235  0.00  0.00    +0.002 A 
ATOM     10  C   UNL     1     -28.694 -13.449  20.183  0.00  0.00    +0.029 A 
ATOM     11  N   UNL     1     -31.401 -10.371  16.320  0.00  0.00    -0.325 N 
ATOM     12  H   UNL     1     -30.824  -9.660  15.818  0.00  0.00    +0.148 HD
ENDROOT
BRANCH   1  14
ATOM     13  N   UNL     1     -25.990 -14.676  22.062  0.00  0.00    -0.191 NA
ATOM     14  C   UNL     1     -26.577 -14.059  21.280  0.00  0.00    +0.099 C 
ENDBRANCH   1  14
BRANCH  11  15
ATOM     15  C   UNL     1     -32.799 -10.516  15.913  0.00  0.00    +0.138 C 
BRANCH  15  16
ATOM     16  C   UNL     1     -32.911 -11.398  14.697  0.00  0.00    -0.028 A 
ATOM     17  C   UNL     1     -33.948 -11.207  13.771  0.00  0.00    +0.005 A 
ATOM     18  C   UNL     1     -34.043 -12.024  12.643  0.00  0.00    +0.003 A 
ATOM     19  C   UNL     1     -33.102 -13.032  12.423  0.00  0.00    +0.033 A 
ATOM     20  C   UNL     1     -32.048 -13.233  13.330  0.00  0.00    +0.127 A 
ATOM     21  C   UNL     1     -31.958 -12.405  14.466  0.00  0.00    +0.038 A 
BRANCH  20  22
ATOM     22  N   UNL     1     -31.077 -14.270  13.099  0.00  0.00    +0.056 N 
ATOM     23  O   UNL     1     -30.452 -14.890  14.156  0.00  0.00    -0.126 OA
ATOM     24  O   UNL     1     -30.782 -14.621  11.938  0.00  0.00    -0.126 OA
ENDBRANCH  20  22
ENDBRANCH  15  16
ENDBRANCH  11  15
TORSDOF 4
ENDMDL
MODEL 4
REMARK VINA RESULT:    -4.001      4.750      6.935
REMARK INTER + INTRA:          -5.263
REMARK INTER:                  -4.869
REMARK INTRA:                  -0.394
REMARK UNBOUND:                -0.326
REMARK  Name = 
REMARK  4 active torsions:
REMARK  status: ('A' for Active; 'I' for Inactive)
REMARK    1  A    between atoms: C_2  and  C_3
REMARK    2  A    between atoms: N_13  and  C_14
REMARK    3  A    between atoms: C_14  and  C_15
REMARK    4  A    between atoms: C_19  and  N_21
REMARK                            x       y       z     vdW  Elec       q    Type
REMARK                         _______ _______ _______ _____ _____    ______ ____
ROOT
ATOM      1  C   UNL     1     -29.751 -14.144  13.740  0.00  0.00    +0.052 A 
ATOM      2  C   UNL     1     -31.043 -13.745  13.375  0.00  0.00    +0.021 A 
ATOM      3  C   UNL     1     -31.925 -13.249  14.340  0.00  0.00    +0.029 A 
ATOM      4  C   UNL     1     -31.521 -13.149  15.675  0.00  0.00    +0.073 A 
ATOM      5  N   UNL     1     -32.377 -12.669  16.616  0.00  0.00    -0.232 NA
ATOM      6  C   UNL     1     -32.029 -12.556  17.928  0.00  0.00    +0.120 A 
ATOM      7  C   UNL     1     -30.738 -12.940  18.331  0.00  0.00    +0.044 A 
ATOM      8  C   UNL     1     -29.836 -13.439  17.389  0.00  0.00    +0.013 A 
ATOM      9  C   UNL     1     -30.219 -13.549  16.047  0.00  0.00    +0.002 A 
ATOM     10  C   UNL     1     -29.338 -14.046  15.076  0.00  0.00    +0.029 A 
ATOM     11  N   UNL     1     -32.998 -12.041  18.858  0.00  0.00    -0.325 N 
ATOM     12  H   UNL     1     -33.904 -11.689  18.474  0.00  0.00    +0.148 HD
ENDROOT
BRANCH   1  14
ATOM     13  N   UNL     1     -28.120 -15.062  11.940  0.00  0.00    -0.191 NA
ATOM     14  C   UNL     1     -28.846 -14.653  12.742  0.00  0.00    +0.099 C 
ENDBRANCH   1  14
BRANCH  11  15
ATOM     15  C   UNL     1     -32.830 -12.028  20.312  0.00  0.00    +0.138 C 
BRANCH  15  16
ATOM     16  C   UNL     1     -32.995 -10.632  20.854  0.00  0.00    -0.028 A 
ATOM     17  C   UNL     1     -34.159 -10.272  21.552  0.00  0.00    +0.005 A 
ATOM     18  C   UNL     1     -34.305  -8.979  22.056  0.00  0.00    +0.003 A 
ATOM     19  C   UNL     1     -33.290  -8.037  21.879  0.00  0.00    +0.033 A 
ATOM     20  C   UNL     1     -32.111  -8.378  21.195  0.00  0.00    +0.127 A 
ATOM     21  C   UNL     1     -31.971  -9.685  20.688  0.00  0.00    +0.038 A 
BRANCH  20  22
ATOM     22  N   UNL     1     -31.065  -7.406  21.017  0.00  0.00    +0.056 N 
ATOM     23  O   UNL     1     -31.074  -6.230  21.731  0.00  0.00    -0.126 OA
ATOM     24  O   UNL     1     -30.133  -7.612  20.211  0.00  0.00    -0.126 OA
ENDBRANCH  20  22
ENDBRANCH  15  16
ENDBRANCH  11  15
TORSDOF 4
ENDMDL
MODEL 5
REMARK VINA RESULT:    -3.851      2.757      3.408
REMARK INTER + INTRA:          -5.077
REMARK INTER:                  -4.803
REMARK INTRA:                  -0.274
REMARK UNBOUND:                -0.326
REMARK  Name = 
REMARK  4 active torsions:
REMARK  status: ('A' for Active; 'I' for Inactive)
REMARK    1  A    between atoms: C_2  and  C_3
REMARK    2  A    between atoms: N_13  and  C_14
REMARK    3  A    between atoms: C_14  and  C_15
REMARK    4  A    between atoms: C_19  and  N_21
REMARK                            x       y       z     vdW  Elec       q    Type
REMARK                         _______ _______ _______ _____ _____    ______ ____
ROOT
ATOM      1  C   UNL     1     -27.116 -13.309  20.196  0.00  0.00    +0.052 A 
ATOM      2  C   UNL     1     -26.642 -12.346  19.295  0.00  0.00    +0.021 A 
ATOM      3  C   UNL     1     -27.514 -11.751  18.377  0.00  0.00    +0.029 A 
ATOM      4  C   UNL     1     -28.864 -12.116  18.355  0.00  0.00    +0.073 A 
ATOM      5  N   UNL     1     -29.713 -11.541  17.462  0.00  0.00    -0.232 NA
ATOM      6  C   UNL     1     -31.034 -11.866  17.400  0.00  0.00    +0.120 A 
ATOM      7  C   UNL     1     -31.549 -12.823  18.293  0.00  0.00    +0.044 A 
ATOM      8  C   UNL     1     -30.701 -13.433  19.220  0.00  0.00    +0.013 A 
ATOM      9  C   UNL     1     -29.346 -13.085  19.260  0.00  0.00    +0.002 A 
ATOM     10  C   UNL     1     -28.467 -13.679  20.179  0.00  0.00    +0.029 A 
ATOM     11  N   UNL     1     -31.862 -11.212  16.423  0.00  0.00    -0.325 N 
ATOM     12  H   UNL     1     -31.434 -10.445  15.856  0.00  0.00    +0.148 HD
ENDROOT
BRANCH   1  14
ATOM     13  N   UNL     1     -25.490 -14.405  21.896  0.00  0.00    -0.191 NA
ATOM     14  C   UNL     1     -26.214 -13.917  21.139  0.00  0.00    +0.099 C 
ENDBRANCH   1  14
BRANCH  11  15
ATOM     15  C   UNL     1     -33.246 -11.581  16.123  0.00  0.00    +0.138 C 
BRANCH  15  16
ATOM     16  C   UNL     1     -33.875 -10.580  15.189  0.00  0.00    -0.028 A 
ATOM     17  C   UNL     1     -34.307 -10.971  13.912  0.00  0.00    +0.005 A 
ATOM     18  C   UNL     1     -34.893 -10.040  13.053  0.00  0.00    +0.003 A 
ATOM     19  C   UNL     1     -35.062  -8.715  13.461  0.00  0.00    +0.033 A 
ATOM     20  C   UNL     1     -34.650  -8.305  14.740  0.00  0.00    +0.127 A 
ATOM     21  C   UNL     1     -34.058  -9.250  15.602  0.00  0.00    +0.038 A 
BRANCH  20  22
ATOM     22  N   UNL     1     -34.829  -6.940  15.161  0.00  0.00    +0.056 N 
ATOM     23  O   UNL     1     -34.903  -6.624  16.498  0.00  0.00    -0.126 OA
ATOM     24  O   UNL     1     -34.924  -6.021  14.321  0.00  0.00    -0.126 OA
ENDBRANCH  20  22
ENDBRANCH  15  16
ENDBRANCH  11  15
TORSDOF 4
ENDMDL
MODEL 6
REMARK VINA RESULT:    -3.673      4.360      6.514
REMARK INTER + INTRA:          -4.858
REMARK INTER:                  -4.409
REMARK INTRA:                  -0.449
REMARK UNBOUND:                -0.326
REMARK  Name = 
REMARK  4 active torsions:
REMARK  status: ('A' for Active; 'I' for Inactive)
REMARK    1  A    between atoms: C_2  and  C_3
REMARK    2  A    between atoms: N_13  and  C_14
REMARK    3  A    between atoms: C_14  and  C_15
REMARK    4  A    between atoms: C_19  and  N_21
REMARK                            x       y       z     vdW  Elec       q    Type
REMARK                         _______ _______ _______ _____ _____    ______ ____
ROOT
ATOM      1  C   UNL     1     -30.219 -14.304  14.384  0.00  0.00    +0.052 A 
ATOM      2  C   UNL     1     -29.334 -14.684  15.403  0.00  0.00    +0.021 A 
ATOM      3  C   UNL     1     -29.567 -14.285  16.722  0.00  0.00    +0.029 A 
ATOM      4  C   UNL     1     -30.684 -13.503  17.032  0.00  0.00    +0.073 A 
ATOM      5  N   UNL     1     -30.911 -13.111  18.314  0.00  0.00    -0.232 NA
ATOM      6  C   UNL     1     -31.984 -12.348  18.663  0.00  0.00    +0.120 A 
ATOM      7  C   UNL     1     -32.898 -11.952  17.670  0.00  0.00    +0.044 A 
ATOM      8  C   UNL     1     -32.691 -12.337  16.344  0.00  0.00    +0.013 A 
ATOM      9  C   UNL     1     -31.578 -13.118  16.009  0.00  0.00    +0.002 A 
ATOM     10  C   UNL     1     -31.341 -13.521  14.687  0.00  0.00    +0.029 A 
ATOM     11  N   UNL     1     -32.147 -11.975  20.042  0.00  0.00    -0.325 N 
ATOM     12  H   UNL     1     -31.483 -12.381  20.739  0.00  0.00    +0.148 HD
ENDROOT
BRANCH   1  14
ATOM     13  N   UNL     1     -29.778 -15.052  11.938  0.00  0.00    -0.191 NA
ATOM     14  C   UNL     1     -29.975 -14.719  13.027  0.00  0.00    +0.099 C 
ENDBRANCH   1  14
BRANCH  11  15
ATOM     15  C   UNL     1     -33.143 -11.021  20.534  0.00  0.00    +0.138 C 
BRANCH  15  16
ATOM     16  C   UNL     1     -32.638  -9.608  20.400  0.00  0.00    -0.028 A 
ATOM     17  C   UNL     1     -31.384  -9.247  20.918  0.00  0.00    +0.005 A 
ATOM     18  C   UNL     1     -30.920  -7.938  20.786  0.00  0.00    +0.003 A 
ATOM     19  C   UNL     1     -31.695  -6.979  20.131  0.00  0.00    +0.033 A 
ATOM     20  C   UNL     1     -32.947  -7.321  19.594  0.00  0.00    +0.127 A 
ATOM     21  C   UNL     1     -33.410  -8.645  19.731  0.00  0.00    +0.038 A 
BRANCH  20  22
ATOM     22  N   UNL     1     -33.743  -6.332  18.915  0.00  0.00    +0.056 N 
ATOM     23  O   UNL     1     -33.536  -4.991  19.143  0.00  0.00    -0.126 OA
ATOM     24  O   UNL     1     -34.635  -6.673  18.110  0.00  0.00    -0.126 OA
ENDBRANCH  20  22
ENDBRANCH  15  16
ENDBRANCH  11  15
TORSDOF 4
ENDMDL
MODEL 7
REMARK VINA RESULT:    -3.532      4.115      5.276
REMARK INTER + INTRA:          -4.685
REMARK INTER:                  -4.961
REMARK INTRA:                   0.276
REMARK UNBOUND:                -0.326
REMARK  Name = 
REMARK  4 active torsions:
REMARK  status: ('A' for Active; 'I' for Inactive)
REMARK    1  A    between atoms: C_2  and  C_3
REMARK    2  A    between atoms: N_13  and  C_14
REMARK    3  A    between atoms: C_14  and  C_15
REMARK    4  A    between atoms: C_19  and  N_21
REMARK                            x       y       z     vdW  Elec       q    Type
REMARK                         _______ _______ _______ _____ _____    ______ ____
ROOT
ATOM      1  C   UNL     1     -32.175  -8.480  20.222  0.00  0.00    +0.052 A 
ATOM      2  C   UNL     1     -33.265  -9.319  20.488  0.00  0.00    +0.021 A 
ATOM      3  C   UNL     1     -33.745 -10.185  19.501  0.00  0.00    +0.029 A 
ATOM      4  C   UNL     1     -33.138 -10.217  18.241  0.00  0.00    +0.073 A 
ATOM      5  N   UNL     1     -33.604 -11.056  17.279  0.00  0.00    -0.232 NA
ATOM      6  C   UNL     1     -33.048 -11.121  16.037  0.00  0.00    +0.120 A 
ATOM      7  C   UNL     1     -31.948 -10.300  15.734  0.00  0.00    +0.044 A 
ATOM      8  C   UNL     1     -31.447  -9.425  16.701  0.00  0.00    +0.013 A 
ATOM      9  C   UNL     1     -32.039  -9.374  17.968  0.00  0.00    +0.002 A 
ATOM     10  C   UNL     1     -31.561  -8.507  18.962  0.00  0.00    +0.029 A 
ATOM     11  N   UNL     1     -33.605 -12.035  15.077  0.00  0.00    -0.325 N 
ATOM     12  H   UNL     1     -34.361 -12.681  15.399  0.00  0.00    +0.148 HD
ENDROOT
BRANCH   1  14
ATOM     13  N   UNL     1     -31.291  -6.876  22.062  0.00  0.00    -0.191 NA
ATOM     14  C   UNL     1     -31.684  -7.591  21.242  0.00  0.00    +0.099 C 
ENDBRANCH   1  14
BRANCH  11  15
ATOM     15  C   UNL     1     -33.230 -12.088  13.663  0.00  0.00    +0.138 C 
BRANCH  15  16
ATOM     16  C   UNL     1     -32.097 -13.057  13.449  0.00  0.00    -0.028 A 
ATOM     17  C   UNL     1     -31.860 -13.606  12.179  0.00  0.00    +0.005 A 
ATOM     18  C   UNL     1     -30.805 -14.500  11.985  0.00  0.00    +0.003 A 
ATOM     19  C   UNL     1     -29.972 -14.847  13.051  0.00  0.00    +0.033 A 
ATOM     20  C   UNL     1     -30.183 -14.299  14.328  0.00  0.00    +0.127 A 
ATOM     21  C   UNL     1     -31.250 -13.398  14.516  0.00  0.00    +0.038 A 
BRANCH  20  22
ATOM     22  N   UNL     1     -29.321 -14.655  15.424  0.00  0.00    +0.056 N 
ATOM     23  O   UNL     1     -27.954 -14.648  15.269  0.00  0.00    -0.126 OA
ATOM     24  O   UNL     1     -29.798 -14.978  16.532  0.00  0.00    -0.126 OA
ENDBRANCH  20  22
ENDBRANCH  15  16
ENDBRANCH  11  15
TORSDOF 4
ENDMDL
