MODEL 1
REMARK VINA RESULT:    -5.398      0.000      0.000
REMARK INTER + INTRA:          -8.856
REMARK INTER:                  -7.449
REMARK INTRA:                  -1.407
REMARK UNBOUND:                -1.407
REMARK  Name = 
REMARK  7 active torsions:
REMARK  status: ('A' for Active; 'I' for Inactive)
REMARK    1  A    between atoms: C_2  and  C_4
REMARK    2  A    between atoms: C_8  and  C_10
REMARK    3  A    between atoms: N_12  and  CA_13
REMARK    4  A    between atoms: CA_13  and  CB_14
REMARK    5  A    between atoms: CA_13  and  C_21
REMARK    6  A    between atoms: CB_14  and  CG_15
REMARK    7  A    between atoms: C_21  and  OXT_23
REMARK                            x       y       z     vdW  Elec       q    Type
REMARK                         _______ _______ _______ _____ _____    ______ ____
ROOT
ATOM      1  C   UNK A   0     -29.979 -14.149  17.191  0.00  0.00    +0.245 C 
ATOM      2  O   UNK A   0     -30.877 -14.674  17.906  0.00  0.00    -0.270 OA
ATOM      3  N   PHE A   1     -28.847 -13.523  17.819  0.00  0.00    -0.298 N 
ATOM      4  H   PHE A   1     -28.013 -13.287  17.234  0.00  0.00    +0.150 HD
ENDROOT
BRANCH   1   9
ATOM      5  C   UNK A   0     -31.269 -13.552  13.664  0.00  0.00    +0.037 A 
ATOM      6  C   UNK A   0     -30.346 -14.302  12.916  0.00  0.00    +0.013 A 
ATOM      7  C   UNK A   0     -29.304 -14.978  13.552  0.00  0.00    +0.001 A 
ATOM      8  C   UNK A   0     -29.176 -14.928  14.940  0.00  0.00    +0.013 A 
ATOM      9  C   UNK A   0     -30.100 -14.207  15.714  0.00  0.00    +0.037 A 
ATOM     10  C   UNK A   0     -31.141 -13.516  15.066  0.00  0.00    +0.026 A 
BRANCH   5  12
ATOM     11  N   UNK A   0     -33.139 -13.461  11.942  0.00  0.00    -0.325 N 
ATOM     12  C   UNK A   0     -32.371 -12.835  12.974  0.00  0.00    +0.242 C 
ATOM     13  O   UNK A   0     -32.652 -11.653  13.311  0.00  0.00    -0.270 OA
ATOM     14  H   UNK A   0     -33.058 -14.480  11.737  0.00  0.00    +0.145 HD
ATOM     15  H   UNK A   0     -33.869 -12.913  11.434  0.00  0.00    +0.145 HD
ENDBRANCH   5  12
ENDBRANCH   1   9
BRANCH   3  16
ATOM     16  CA  PHE A   1     -28.806 -13.257  19.262  0.00  0.00    +0.186 C 
BRANCH  16  17
ATOM     17  C   PHE A   1     -27.569 -13.864  19.868  0.00  0.00    +0.326 C 
ATOM     18  O   PHE A   1     -26.454 -13.284  19.758  0.00  0.00    -0.249 OA
BRANCH  17  19
ATOM     19  OXT PHE A   1     -27.659 -15.062  20.568  0.00  0.00    -0.479 OA
ATOM     20  HXT PHE A   1     -27.844 -15.934  20.085  0.00  0.00    +0.295 HD
ENDBRANCH  17  19
ENDBRANCH  16  17
BRANCH  16  21
ATOM     21  CB  PHE A   1     -28.864 -11.739  19.519  0.00  0.00    +0.069 C 
BRANCH  21  22
ATOM     22  CG  PHE A   1     -29.889 -11.064  18.642  0.00  0.00    -0.045 A 
ATOM     23  CD1 PHE A   1     -31.257 -11.152  18.949  0.00  0.00    +0.004 A 
ATOM     24  CE1 PHE A   1     -32.205 -10.550  18.116  0.00  0.00    +0.000 A 
ATOM     25  CZ  PHE A   1     -31.795  -9.861  16.971  0.00  0.00    +0.000 A 
ATOM     26  CE2 PHE A   1     -30.437  -9.776  16.655  0.00  0.00    +0.000 A 
ATOM     27  CD2 PHE A   1     -29.486 -10.377  17.485  0.00  0.00    +0.004 A 
ENDBRANCH  21  22
ENDBRANCH  16  21
ENDBRANCH   3  16
TORSDOF 7
ENDMDL
MODEL 2
REMARK VINA RESULT:    -5.365      0.663      1.223
REMARK INTER + INTRA:          -8.812
REMARK INTER:                  -7.313
REMARK INTRA:                  -1.499
REMARK UNBOUND:                -1.407
REMARK  Name = 
REMARK  7 active torsions:
REMARK  status: ('A' for Active; 'I' for Inactive)
REMARK    1  A    between atoms: C_2  and  C_4
REMARK    2  A    between atoms: C_8  and  C_10
REMARK    3  A    between atoms: N_12  and  CA_13
REMARK    4  A    between atoms: CA_13  and  CB_14
REMARK    5  A    between atoms: CA_13  and  C_21
REMARK    6  A    between atoms: CB_14  and  CG_15
REMARK    7  A    between atoms: C_21  and  OXT_23
REMARK                            x       y       z     vdW  Elec       q    Type
REMARK                         _______ _______ _______ _____ _____    ______ ____
ROOT
ATOM      1  C   UNK A   0     -29.772 -13.943  16.879  0.00  0.00    +0.245 C 
ATOM      2  O   UNK A   0     -30.391 -14.698  17.678  0.00  0.00    -0.270 OA
ATOM      3  N   PHE A   1     -28.821 -12.993  17.392  0.00  0.00    -0.298 N 
ATOM      4  H   PHE A   1     -28.162 -12.530  16.726  0.00  0.00    +0.150 HD
ENDROOT
BRANCH   1   9
ATOM      5  C   UNK A   0     -31.403 -13.547  13.467  0.00  0.00    +0.037 A 
ATOM      6  C   UNK A   0     -30.514 -14.281  12.664  0.00  0.00    +0.013 A 
ATOM      7  C   UNK A   0     -29.387 -14.882  13.225  0.00  0.00    +0.001 A 
ATOM      8  C   UNK A   0     -29.136 -14.772  14.593  0.00  0.00    +0.013 A 
ATOM      9  C   UNK A   0     -30.023 -14.064  15.423  0.00  0.00    +0.037 A 
ATOM     10  C   UNK A   0     -31.151 -13.449  14.849  0.00  0.00    +0.026 A 
BRANCH   5  12
ATOM     11  N   UNK A   0     -33.435 -13.619  11.940  0.00  0.00    -0.325 N 
ATOM     12  C   UNK A   0     -32.597 -12.910  12.857  0.00  0.00    +0.242 C 
ATOM     13  O   UNK A   0     -32.894 -11.723  13.161  0.00  0.00    -0.270 OA
ATOM     14  H   UNK A   0     -33.331 -14.644  11.778  0.00  0.00    +0.145 HD
ATOM     15  H   UNK A   0     -34.234 -13.127  11.480  0.00  0.00    +0.145 HD
ENDBRANCH   5  12
ENDBRANCH   1   9
BRANCH   3  16
ATOM     16  CA  PHE A   1     -28.713 -12.697  18.826  0.00  0.00    +0.186 C 
BRANCH  16  17
ATOM     17  C   PHE A   1     -27.302 -12.925  19.299  0.00  0.00    +0.326 C 
ATOM     18  O   PHE A   1     -26.504 -11.956  19.415  0.00  0.00    -0.249 OA
BRANCH  17  19
ATOM     19  OXT PHE A   1     -26.882 -14.211  19.626  0.00  0.00    -0.479 OA
ATOM     20  HXT PHE A   1     -27.274 -15.020  19.159  0.00  0.00    +0.295 HD
ENDBRANCH  17  19
ENDBRANCH  16  17
BRANCH  16  21
ATOM     21  CB  PHE A   1     -29.164 -11.251  19.100  0.00  0.00    +0.069 C 
BRANCH  21  22
ATOM     22  CG  PHE A   1     -30.286 -10.833  18.182  0.00  0.00    -0.045 A 
ATOM     23  CD1 PHE A   1     -30.018 -10.074  17.030  0.00  0.00    +0.004 A 
ATOM     24  CE1 PHE A   1     -31.066  -9.664  16.199  0.00  0.00    +0.000 A 
ATOM     25  CZ  PHE A   1     -32.384 -10.002  16.514  0.00  0.00    +0.000 A 
ATOM     26  CE2 PHE A   1     -32.659 -10.750  17.663  0.00  0.00    +0.000 A 
ATOM     27  CD2 PHE A   1     -31.615 -11.162  18.496  0.00  0.00    +0.004 A 
ENDBRANCH  21  22
ENDBRANCH  16  21
ENDBRANCH   3  16
TORSDOF 7
ENDMDL
MODEL 3
REMARK VINA RESULT:    -5.278      2.481      4.388
REMARK INTER + INTRA:          -8.691
REMARK INTER:                  -7.205
REMARK INTRA:                  -1.486
REMARK UNBOUND:                -1.407
REMARK  Name = 
REMARK  7 active torsions:
REMARK  status: ('A' for Active; 'I' for Inactive)
REMARK    1  A    between atoms: C_2  and  C_4
REMARK    2  A    between atoms: C_8  and  C_10
REMARK    3  A    between atoms: N_12  and  CA_13
REMARK    4  A    between atoms: CA_13  and  CB_14
REMARK    5  A    between atoms: CA_13  and  C_21
REMARK    6  A    between atoms: CB_14  and  CG_15
REMARK    7  A    between atoms: C_21  and  OXT_23
REMARK                            x       y       z     vdW  Elec       q    Type
REMARK                         _______ _______ _______ _____ _____    ______ ____
ROOT
ATOM      1  C   UNK A   0     -30.948 -10.011  16.521  0.00  0.00    +0.245 C 
ATOM      2  O   UNK A   0     -30.043  -9.223  16.130  0.00  0.00    -0.270 OA
ATOM      3  N   PHE A   1     -30.824 -10.658  17.800  0.00  0.00    -0.298 N 
ATOM      4  H   PHE A   1     -31.662 -11.129  18.208  0.00  0.00    +0.150 HD
ENDROOT
BRANCH   1   9
ATOM      5  C   UNK A   0     -33.247 -11.517  13.892  0.00  0.00    +0.037 A 
ATOM      6  C   UNK A   0     -34.373 -10.686  14.021  0.00  0.00    +0.013 A 
ATOM      7  C   UNK A   0     -34.390  -9.660  14.965  0.00  0.00    +0.001 A 
ATOM      8  C   UNK A   0     -33.283  -9.438  15.785  0.00  0.00    +0.013 A 
ATOM      9  C   UNK A   0     -32.134 -10.238  15.660  0.00  0.00    +0.037 A 
ATOM     10  C   UNK A   0     -32.128 -11.280  14.714  0.00  0.00    +0.026 A 
BRANCH   5  12
ATOM     11  N   UNK A   0     -34.305 -12.753  11.938  0.00  0.00    -0.325 N 
ATOM     12  C   UNK A   0     -33.243 -12.606  12.884  0.00  0.00    +0.242 C 
ATOM     13  O   UNK A   0     -32.277 -13.416  12.846  0.00  0.00    -0.270 OA
ATOM     14  H   UNK A   0     -35.041 -12.023  11.820  0.00  0.00    +0.145 HD
ATOM     15  H   UNK A   0     -34.306 -13.563  11.279  0.00  0.00    +0.145 HD
ENDBRANCH   5  12
ENDBRANCH   1   9
BRANCH   3  16
ATOM     16  CA  PHE A   1     -29.574 -10.627  18.568  0.00  0.00    +0.186 C 
BRANCH  16  17
ATOM     17  C   PHE A   1     -29.803  -9.972  19.905  0.00  0.00    +0.326 C 
ATOM     18  O   PHE A   1     -29.958 -10.674  20.941  0.00  0.00    -0.249 OA
BRANCH  17  19
ATOM     19  OXT PHE A   1     -29.824  -8.584  20.000  0.00  0.00    -0.479 OA
ATOM     20  HXT PHE A   1     -30.235  -8.125  20.805  0.00  0.00    +0.295 HD
ENDBRANCH  17  19
ENDBRANCH  16  17
BRANCH  16  21
ATOM     21  CB  PHE A   1     -29.025 -12.056  18.736  0.00  0.00    +0.069 C 
BRANCH  21  22
ATOM     22  CG  PHE A   1     -29.665 -13.017  17.765  0.00  0.00    -0.045 A 
ATOM     23  CD1 PHE A   1     -29.015 -13.357  16.567  0.00  0.00    +0.004 A 
ATOM     24  CE1 PHE A   1     -29.628 -14.225  15.658  0.00  0.00    +0.000 A 
ATOM     25  CZ  PHE A   1     -30.892 -14.753  15.934  0.00  0.00    +0.000 A 
ATOM     26  CE2 PHE A   1     -31.547 -14.412  17.120  0.00  0.00    +0.000 A 
ATOM     27  CD2 PHE A   1     -30.939 -13.545  18.032  0.00  0.00    +0.004 A 
ENDBRANCH  21  22
ENDBRANCH  16  21
ENDBRANCH   3  16
TORSDOF 7
ENDMDL
MODEL 4
REMARK VINA RESULT:    -4.608      3.061      4.558
REMARK INTER + INTRA:          -7.766
REMARK INTER:                  -6.376
REMARK INTRA:                  -1.390
REMARK UNBOUND:                -1.407
REMARK  Name = 
REMARK  7 active torsions:
REMARK  status: ('A' for Active; 'I' for Inactive)
REMARK    1  A    between atoms: C_2  and  C_4
REMARK    2  A    between atoms: C_8  and  C_10
REMARK    3  A    between atoms: N_12  and  CA_13
REMARK    4  A    between atoms: CA_13  and  CB_14
REMARK    5  A    between atoms: CA_13  and  C_21
REMARK    6  A    between atoms: CB_14  and  CG_15
REMARK    7  A    between atoms: C_21  and  OXT_23
REMARK                            x       y       z     vdW  Elec       q    Type
REMARK                         _______ _______ _______ _____ _____    ______ ____
ROOT
ATOM      1  C   UNK A   0     -31.108  -9.945  16.476  0.00  0.00    +0.245 C 
ATOM      2  O   UNK A   0     -30.183  -9.154  16.142  0.00  0.00    -0.270 OA
ATOM      3  N   PHE A   1     -31.763  -9.777  17.745  0.00  0.00    -0.298 N 
ATOM      4  H   PHE A   1     -32.658 -10.287  17.921  0.00  0.00    +0.150 HD
ENDROOT
BRANCH   1   9
ATOM      5  C   UNK A   0     -33.026 -11.850  13.802  0.00  0.00    +0.037 A 
ATOM      6  C   UNK A   0     -32.298 -13.051  13.761  0.00  0.00    +0.013 A 
ATOM      7  C   UNK A   0     -31.184 -13.231  14.582  0.00  0.00    +0.001 A 
ATOM      8  C   UNK A   0     -30.788 -12.223  15.462  0.00  0.00    +0.013 A 
ATOM      9  C   UNK A   0     -31.514 -11.023  15.541  0.00  0.00    +0.037 A 
ATOM     10  C   UNK A   0     -32.629 -10.842  14.701  0.00  0.00    +0.026 A 
BRANCH   5  12
ATOM     11  N   UNK A   0     -34.561 -12.649  11.938  0.00  0.00    -0.325 N 
ATOM     12  C   UNK A   0     -34.208 -11.672  12.921  0.00  0.00    +0.242 C 
ATOM     13  O   UNK A   0     -34.930 -10.646  13.048  0.00  0.00    -0.270 OA
ATOM     14  H   UNK A   0     -34.099 -13.583  11.900  0.00  0.00    +0.145 HD
ATOM     15  H   UNK A   0     -35.363 -12.470  11.293  0.00  0.00    +0.145 HD
ENDBRANCH   5  12
ENDBRANCH   1   9
BRANCH   3  16
ATOM     16  CA  PHE A   1     -31.243  -8.870  18.775  0.00  0.00    +0.186 C 
BRANCH  16  17
ATOM     17  C   PHE A   1     -32.302  -7.878  19.178  0.00  0.00    +0.326 C 
ATOM     18  O   PHE A   1     -32.425  -7.531  20.384  0.00  0.00    -0.249 OA
BRANCH  17  19
ATOM     19  OXT PHE A   1     -33.138  -7.329  18.210  0.00  0.00    -0.479 OA
ATOM     20  HXT PHE A   1     -33.542  -6.408  18.335  0.00  0.00    +0.295 HD
ENDBRANCH  17  19
ENDBRANCH  16  17
BRANCH  16  21
ATOM     21  CB  PHE A   1     -30.749  -9.679  19.988  0.00  0.00    +0.069 C 
BRANCH  21  22
ATOM     22  CG  PHE A   1     -30.038 -10.940  19.565  0.00  0.00    -0.045 A 
ATOM     23  CD1 PHE A   1     -28.744 -10.880  19.021  0.00  0.00    +0.004 A 
ATOM     24  CE1 PHE A   1     -28.102 -12.049  18.602  0.00  0.00    +0.000 A 
ATOM     25  CZ  PHE A   1     -28.747 -13.283  18.718  0.00  0.00    +0.000 A 
ATOM     26  CE2 PHE A   1     -30.037 -13.351  19.251  0.00  0.00    +0.000 A 
ATOM     27  CD2 PHE A   1     -30.683 -12.184  19.671  0.00  0.00    +0.004 A 
ENDBRANCH  21  22
ENDBRANCH  16  21
ENDBRANCH   3  16
TORSDOF 7
ENDMDL
MODEL 5
REMARK VINA RESULT:    -4.561      3.148      5.869
REMARK INTER + INTRA:          -7.701
REMARK INTER:                  -6.797
REMARK INTRA:                  -0.904
REMARK UNBOUND:                -1.407
REMARK  Name = 
REMARK  7 active torsions:
REMARK  status: ('A' for Active; 'I' for Inactive)
REMARK    1  A    between atoms: C_2  and  C_4
REMARK    2  A    between atoms: C_8  and  C_10
REMARK    3  A    between atoms: N_12  and  CA_13
REMARK    4  A    between atoms: CA_13  and  CB_14
REMARK    5  A    between atoms: CA_13  and  C_21
REMARK    6  A    between atoms: CB_14  and  CG_15
REMARK    7  A    between atoms: C_21  and  OXT_23
REMARK                            x       y       z     vdW  Elec       q    Type
REMARK                         _______ _______ _______ _____ _____    ______ ____
ROOT
ATOM      1  C   UNK A   0     -30.711 -10.580  17.118  0.00  0.00    +0.245 C 
ATOM      2  O   UNK A   0     -29.630 -10.038  16.756  0.00  0.00    -0.270 OA
ATOM      3  N   PHE A   1     -30.701 -11.942  17.581  0.00  0.00    -0.298 N 
ATOM      4  H   PHE A   1     -31.545 -12.311  18.077  0.00  0.00    +0.150 HD
ENDROOT
BRANCH   1   9
ATOM      5  C   UNK A   0     -33.559  -8.294  18.177  0.00  0.00    +0.037 A 
ATOM      6  C   UNK A   0     -34.345  -8.297  17.012  0.00  0.00    +0.013 A 
ATOM      7  C   UNK A   0     -33.942  -9.019  15.889  0.00  0.00    +0.001 A 
ATOM      8  C   UNK A   0     -32.759  -9.760  15.914  0.00  0.00    +0.013 A 
ATOM      9  C   UNK A   0     -31.968  -9.795  17.075  0.00  0.00    +0.037 A 
ATOM     10  C   UNK A   0     -32.373  -9.053  18.200  0.00  0.00    +0.026 A 
BRANCH   5  12
ATOM     11  N   UNK A   0     -35.062  -7.978  20.204  0.00  0.00    -0.325 N 
ATOM     12  C   UNK A   0     -33.999  -7.519  19.364  0.00  0.00    +0.242 C 
ATOM     13  O   UNK A   0     -33.417  -6.439  19.652  0.00  0.00    -0.270 OA
ATOM     14  H   UNK A   0     -35.466  -8.934  20.107  0.00  0.00    +0.145 HD
ATOM     15  H   UNK A   0     -35.389  -7.383  20.998  0.00  0.00    +0.145 HD
ENDBRANCH   5  12
ENDBRANCH   1   9
BRANCH   3  16
ATOM     16  CA  PHE A   1     -29.526 -12.807  17.429  0.00  0.00    +0.186 C 
BRANCH  16  17
ATOM     17  C   PHE A   1     -28.813 -12.952  18.747  0.00  0.00    +0.326 C 
ATOM     18  O   PHE A   1     -28.292 -11.948  19.305  0.00  0.00    -0.249 OA
BRANCH  17  19
ATOM     19  OXT PHE A   1     -28.744 -14.199  19.362  0.00  0.00    -0.479 OA
ATOM     20  HXT PHE A   1     -28.020 -14.862  19.111  0.00  0.00    +0.295 HD
ENDBRANCH  17  19
ENDBRANCH  16  17
BRANCH  16  21
ATOM     21  CB  PHE A   1     -29.951 -14.179  16.873  0.00  0.00    +0.069 C 
BRANCH  21  22
ATOM     22  CG  PHE A   1     -29.853 -14.226  15.369  0.00  0.00    -0.045 A 
ATOM     23  CD1 PHE A   1     -30.919 -13.778  14.571  0.00  0.00    +0.004 A 
ATOM     24  CE1 PHE A   1     -30.835 -13.853  13.177  0.00  0.00    +0.000 A 
ATOM     25  CZ  PHE A   1     -29.690 -14.378  12.571  0.00  0.00    +0.000 A 
ATOM     26  CE2 PHE A   1     -28.628 -14.832  13.359  0.00  0.00    +0.000 A 
ATOM     27  CD2 PHE A   1     -28.709 -14.760  14.752  0.00  0.00    +0.004 A 
ENDBRANCH  21  22
ENDBRANCH  16  21
ENDBRANCH   3  16
TORSDOF 7
ENDMDL
MODEL 6
REMARK VINA RESULT:    -4.493      1.888      6.913
REMARK INTER + INTRA:          -7.608
REMARK INTER:                  -7.030
REMARK INTRA:                  -0.578
REMARK UNBOUND:                -1.407
REMARK  Name = 
REMARK  7 active torsions:
REMARK  status: ('A' for Active; 'I' for Inactive)
REMARK    1  A    between atoms: C_2  and  C_4
REMARK    2  A    between atoms: C_8  and  C_10
REMARK    3  A    between atoms: N_12  and  CA_13
REMARK    4  A    between atoms: CA_13  and  CB_14
REMARK    5  A    between atoms: CA_13  and  C_21
REMARK    6  A    between atoms: CB_14  and  CG_15
REMARK    7  A    between atoms: C_21  and  OXT_23
REMARK                            x       y       z     vdW  Elec       q    Type
REMARK                         _______ _______ _______ _____ _____    ______ ____
ROOT
ATOM      1  C   UNK A   0     -32.299 -11.893  15.923  0.00  0.00    +0.245 C 
ATOM      2  O   UNK A   0     -33.413 -12.324  16.329  0.00  0.00    -0.270 OA
ATOM      3  N   PHE A   1     -31.960 -12.004  14.529  0.00  0.00    -0.298 N 
ATOM      4  H   PHE A   1     -31.146 -11.459  14.165  0.00  0.00    +0.150 HD
ENDROOT
BRANCH   1   9
ATOM      5  C   UNK A   0     -29.290 -11.341  18.181  0.00  0.00    +0.037 A 
ATOM      6  C   UNK A   0     -29.591 -10.078  18.717  0.00  0.00    +0.013 A 
ATOM      7  C   UNK A   0     -30.752  -9.406  18.333  0.00  0.00    +0.001 A 
ATOM      8  C   UNK A   0     -31.634  -9.987  17.421  0.00  0.00    +0.013 A 
ATOM      9  C   UNK A   0     -31.369 -11.261  16.890  0.00  0.00    +0.037 A 
ATOM     10  C   UNK A   0     -30.190 -11.928  17.270  0.00  0.00    +0.026 A 
BRANCH   5  12
ATOM     11  N   UNK A   0     -28.060 -13.430  18.951  0.00  0.00    -0.325 N 
ATOM     12  C   UNK A   0     -28.050 -12.044  18.597  0.00  0.00    +0.242 C 
ATOM     13  O   UNK A   0     -26.958 -11.415  18.626  0.00  0.00    -0.270 OA
ATOM     14  H   UNK A   0     -28.895 -14.033  18.792  0.00  0.00    +0.145 HD
ATOM     15  H   UNK A   0     -27.184 -13.883  19.297  0.00  0.00    +0.145 HD
ENDBRANCH   5  12
ENDBRANCH   1   9
BRANCH   3  16
ATOM     16  CA  PHE A   1     -32.755 -12.813  13.598  0.00  0.00    +0.186 C 
BRANCH  16  17
ATOM     17  C   PHE A   1     -33.836 -11.973  12.972  0.00  0.00    +0.326 C 
ATOM     18  O   PHE A   1     -34.015 -10.782  13.344  0.00  0.00    -0.249 OA
BRANCH  17  19
ATOM     19  OXT PHE A   1     -34.630 -12.509  11.963  0.00  0.00    -0.479 OA
ATOM     20  HXT PHE A   1     -35.571 -12.167  11.806  0.00  0.00    +0.295 HD
ENDBRANCH  17  19
ENDBRANCH  16  17
BRANCH  16  21
ATOM     21  CB  PHE A   1     -31.839 -13.431  12.525  0.00  0.00    +0.069 C 
BRANCH  21  22
ATOM     22  CG  PHE A   1     -30.591 -14.023  13.131  0.00  0.00    -0.045 A 
ATOM     23  CD1 PHE A   1     -30.608 -14.537  14.438  0.00  0.00    +0.004 A 
ATOM     24  CE1 PHE A   1     -29.439 -15.056  15.004  0.00  0.00    +0.000 A 
ATOM     25  CZ  PHE A   1     -28.248 -15.060  14.274  0.00  0.00    +0.000 A 
ATOM     26  CE2 PHE A   1     -28.222 -14.544  12.976  0.00  0.00    +0.000 A 
ATOM     27  CD2 PHE A   1     -29.387 -14.023  12.406  0.00  0.00    +0.004 A 
ENDBRANCH  21  22
ENDBRANCH  16  21
ENDBRANCH   3  16
TORSDOF 7
ENDMDL
MODEL 7
REMARK VINA RESULT:    -4.478      2.972      5.278
REMARK INTER + INTRA:          -7.587
REMARK INTER:                  -6.104
REMARK INTRA:                  -1.483
REMARK UNBOUND:                -1.407
REMARK  Name = 
REMARK  7 active torsions:
REMARK  status: ('A' for Active; 'I' for Inactive)
REMARK    1  A    between atoms: C_2  and  C_4
REMARK    2  A    between atoms: C_8  and  C_10
REMARK    3  A    between atoms: N_12  and  CA_13
REMARK    4  A    between atoms: CA_13  and  CB_14
REMARK    5  A    between atoms: CA_13  and  C_21
REMARK    6  A    between atoms: CB_14  and  CG_15
REMARK    7  A    between atoms: C_21  and  OXT_23
REMARK                            x       y       z     vdW  Elec       q    Type
REMARK                         _______ _______ _______ _____ _____    ______ ____
ROOT
ATOM      1  C   UNK A   0     -32.096 -13.196  13.255  0.00  0.00    +0.245 C 
ATOM      2  O   UNK A   0     -32.386 -14.031  12.354  0.00  0.00    -0.270 OA
ATOM      3  N   PHE A   1     -30.882 -13.359  14.010  0.00  0.00    -0.298 N 
ATOM      4  H   PHE A   1     -30.542 -12.561  14.594  0.00  0.00    +0.150 HD
ENDROOT
BRANCH   1   9
ATOM      5  C   UNK A   0     -33.621 -10.096  14.844  0.00  0.00    +0.037 A 
ATOM      6  C   UNK A   0     -34.714  -9.873  13.989  0.00  0.00    +0.013 A 
ATOM      7  C   UNK A   0     -34.939 -10.711  12.897  0.00  0.00    +0.001 A 
ATOM      8  C   UNK A   0     -34.090 -11.790  12.649  0.00  0.00    +0.013 A 
ATOM      9  C   UNK A   0     -33.005 -12.050  13.503  0.00  0.00    +0.037 A 
ATOM     10  C   UNK A   0     -32.774 -11.193  14.595  0.00  0.00    +0.026 A 
BRANCH   5  12
ATOM     11  N   UNK A   0     -34.127  -7.978  16.158  0.00  0.00    -0.325 N 
ATOM     12  C   UNK A   0     -33.391  -9.194  16.000  0.00  0.00    +0.242 C 
ATOM     13  O   UNK A   0     -32.539  -9.509  16.876  0.00  0.00    -0.270 OA
ATOM     14  H   UNK A   0     -34.948  -7.750  15.557  0.00  0.00    +0.145 HD
ATOM     15  H   UNK A   0     -33.903  -7.334  16.949  0.00  0.00    +0.145 HD
ENDBRANCH   5  12
ENDBRANCH   1   9
BRANCH   3  16
ATOM     16  CA  PHE A   1     -30.083 -14.587  13.941  0.00  0.00    +0.186 C 
BRANCH  16  17
ATOM     17  C   PHE A   1     -28.844 -14.356  13.116  0.00  0.00    +0.326 C 
ATOM     18  O   PHE A   1     -28.936 -13.917  11.938  0.00  0.00    -0.249 OA
BRANCH  17  19
ATOM     19  OXT PHE A   1     -27.591 -14.611  13.665  0.00  0.00    -0.479 OA
ATOM     20  HXT PHE A   1     -26.813 -13.984  13.496  0.00  0.00    +0.295 HD
ENDBRANCH  17  19
ENDBRANCH  16  17
BRANCH  16  21
ATOM     21  CB  PHE A   1     -29.723 -15.061  15.362  0.00  0.00    +0.069 C 
BRANCH  21  22
ATOM     22  CG  PHE A   1     -30.247 -14.116  16.414  0.00  0.00    -0.045 A 
ATOM     23  CD1 PHE A   1     -29.412 -13.132  16.967  0.00  0.00    +0.004 A 
ATOM     24  CE1 PHE A   1     -29.895 -12.278  17.964  0.00  0.00    +0.000 A 
ATOM     25  CZ  PHE A   1     -31.210 -12.404  18.419  0.00  0.00    +0.000 A 
ATOM     26  CE2 PHE A   1     -32.045 -13.386  17.878  0.00  0.00    +0.000 A 
ATOM     27  CD2 PHE A   1     -31.566 -14.242  16.882  0.00  0.00    +0.004 A 
ENDBRANCH  21  22
ENDBRANCH  16  21
ENDBRANCH   3  16
TORSDOF 7
ENDMDL
MODEL 8
REMARK VINA RESULT:    -4.457      1.712      2.558
REMARK INTER + INTRA:          -7.558
REMARK INTER:                  -5.959
REMARK INTRA:                  -1.599
REMARK UNBOUND:                -1.407
REMARK  Name = 
REMARK  7 active torsions:
REMARK  status: ('A' for Active; 'I' for Inactive)
REMARK    1  A    between atoms: C_2  and  C_4
REMARK    2  A    between atoms: C_8  and  C_10
REMARK    3  A    between atoms: N_12  and  CA_13
REMARK    4  A    between atoms: CA_13  and  CB_14
REMARK    5  A    between atoms: CA_13  and  C_21
REMARK    6  A    between atoms: CB_14  and  CG_15
REMARK    7  A    between atoms: C_21  and  OXT_23
REMARK                            x       y       z     vdW  Elec       q    Type
REMARK                         _______ _______ _______ _____ _____    ______ ____
ROOT
ATOM      1  C   UNK A   0     -30.111 -13.354  17.194  0.00  0.00    +0.245 C 
ATOM      2  O   UNK A   0     -29.966 -14.220  18.100  0.00  0.00    -0.270 OA
ATOM      3  N   PHE A   1     -30.241 -11.967  17.553  0.00  0.00    -0.298 N 
ATOM      4  H   PHE A   1     -30.143 -11.243  16.805  0.00  0.00    +0.150 HD
ENDROOT
BRANCH   1   9
ATOM      5  C   UNK A   0     -31.139 -13.680  13.548  0.00  0.00    +0.037 A 
ATOM      6  C   UNK A   0     -30.167 -14.581  13.081  0.00  0.00    +0.013 A 
ATOM      7  C   UNK A   0     -29.178 -15.062  13.939  0.00  0.00    +0.001 A 
ATOM      8  C   UNK A   0     -29.150 -14.663  15.276  0.00  0.00    +0.013 A 
ATOM      9  C   UNK A   0     -30.125 -13.783  15.775  0.00  0.00    +0.037 A 
ATOM     10  C   UNK A   0     -31.113 -13.291  14.901  0.00  0.00    +0.026 A 
BRANCH   5  12
ATOM     11  N   UNK A   0     -33.072 -14.065  11.940  0.00  0.00    -0.325 N 
ATOM     12  C   UNK A   0     -32.184 -13.175  12.623  0.00  0.00    +0.242 C 
ATOM     13  O   UNK A   0     -32.309 -11.933  12.443  0.00  0.00    -0.270 OA
ATOM     14  H   UNK A   0     -33.119 -15.080  12.173  0.00  0.00    +0.145 HD
ATOM     15  H   UNK A   0     -33.758 -13.686  11.250  0.00  0.00    +0.145 HD
ENDBRANCH   5  12
ENDBRANCH   1   9
BRANCH   3  16
ATOM     16  CA  PHE A   1     -30.451 -11.538  18.941  0.00  0.00    +0.186 C 
BRANCH  16  17
ATOM     17  C   PHE A   1     -29.325 -10.640  19.383  0.00  0.00    +0.326 C 
ATOM     18  O   PHE A   1     -28.231 -11.132  19.770  0.00  0.00    -0.249 OA
BRANCH  17  19
ATOM     19  OXT PHE A   1     -29.489  -9.259  19.347  0.00  0.00    -0.479 OA
ATOM     20  HXT PHE A   1     -28.793  -8.665  18.912  0.00  0.00    +0.295 HD
ENDBRANCH  17  19
ENDBRANCH  16  17
BRANCH  16  21
ATOM     21  CB  PHE A   1     -31.812 -10.830  19.073  0.00  0.00    +0.069 C 
BRANCH  21  22
ATOM     22  CG  PHE A   1     -32.524 -10.740  17.746  0.00  0.00    -0.045 A 
ATOM     23  CD1 PHE A   1     -32.183  -9.741  16.820  0.00  0.00    +0.004 A 
ATOM     24  CE1 PHE A   1     -32.868  -9.645  15.605  0.00  0.00    +0.000 A 
ATOM     25  CZ  PHE A   1     -33.900 -10.539  15.309  0.00  0.00    +0.000 A 
ATOM     26  CE2 PHE A   1     -34.250 -11.531  16.229  0.00  0.00    +0.000 A 
ATOM     27  CD2 PHE A   1     -33.569 -11.631  17.445  0.00  0.00    +0.004 A 
ENDBRANCH  21  22
ENDBRANCH  16  21
ENDBRANCH   3  16
TORSDOF 7
ENDMDL
MODEL 9
REMARK VINA RESULT:    -4.413      2.371      3.178
REMARK INTER + INTRA:          -7.498
REMARK INTER:                  -5.990
REMARK INTRA:                  -1.508
REMARK UNBOUND:                -1.407
REMARK  Name = 
REMARK  7 active torsions:
REMARK  status: ('A' for Active; 'I' for Inactive)
REMARK    1  A    between atoms: C_2  and  C_4
REMARK    2  A    between atoms: C_8  and  C_10
REMARK    3  A    between atoms: N_12  and  CA_13
REMARK    4  A    between atoms: CA_13  and  CB_14
REMARK    5  A    between atoms: CA_13  and  C_21
REMARK    6  A    between atoms: CB_14  and  CG_15
REMARK    7  A    between atoms: C_21  and  OXT_23
REMARK                            x       y       z     vdW  Elec       q    Type
REMARK                         _______ _______ _______ _____ _____    ______ ____
ROOT
ATOM      1  C   UNK A   0     -29.679 -13.132  16.963  0.00  0.00    +0.245 C 
ATOM      2  O   UNK A   0     -29.266 -14.299  16.719  0.00  0.00    -0.270 OA
ATOM      3  N   PHE A   1     -29.170 -12.423  18.107  0.00  0.00    -0.298 N 
ATOM      4  H   PHE A   1     -29.346 -11.395  18.180  0.00  0.00    +0.150 HD
ENDROOT
BRANCH   1   9
ATOM      5  C   UNK A   0     -32.241 -10.693  15.566  0.00  0.00    +0.037 A 
ATOM      6  C   UNK A   0     -32.542 -11.304  14.337  0.00  0.00    +0.013 A 
ATOM      7  C   UNK A   0     -31.904 -12.486  13.960  0.00  0.00    +0.001 A 
ATOM      8  C   UNK A   0     -30.968 -13.083  14.806  0.00  0.00    +0.013 A 
ATOM      9  C   UNK A   0     -30.668 -12.506  16.051  0.00  0.00    +0.037 A 
ATOM     10  C   UNK A   0     -31.304 -11.307  16.420  0.00  0.00    +0.026 A 
BRANCH   5  12
ATOM     11  N   UNK A   0     -32.534  -8.698  17.115  0.00  0.00    -0.325 N 
ATOM     12  C   UNK A   0     -32.925  -9.435  15.953  0.00  0.00    +0.242 C 
ATOM     13  O   UNK A   0     -33.864  -8.991  15.238  0.00  0.00    -0.270 OA
ATOM     14  H   UNK A   0     -31.668  -8.929  17.647  0.00  0.00    +0.145 HD
ATOM     15  H   UNK A   0     -33.072  -7.848  17.396  0.00  0.00    +0.145 HD
ENDBRANCH   5  12
ENDBRANCH   1   9
BRANCH   3  16
ATOM     16  CA  PHE A   1     -28.368 -13.088  19.140  0.00  0.00    +0.186 C 
BRANCH  16  17
ATOM     17  C   PHE A   1     -26.987 -12.489  19.191  0.00  0.00    +0.326 C 
ATOM     18  O   PHE A   1     -26.777 -11.330  18.740  0.00  0.00    -0.249 OA
BRANCH  17  19
ATOM     19  OXT PHE A   1     -25.941 -13.212  19.756  0.00  0.00    -0.479 OA
ATOM     20  HXT PHE A   1     -24.978 -13.008  19.513  0.00  0.00    +0.295 HD
ENDBRANCH  17  19
ENDBRANCH  16  17
BRANCH  16  21
ATOM     21  CB  PHE A   1     -29.072 -12.977  20.505  0.00  0.00    +0.069 C 
BRANCH  21  22
ATOM     22  CG  PHE A   1     -30.224 -12.004  20.461  0.00  0.00    -0.045 A 
ATOM     23  CD1 PHE A   1     -30.010 -10.635  20.694  0.00  0.00    +0.004 A 
ATOM     24  CE1 PHE A   1     -31.087  -9.743  20.682  0.00  0.00    +0.000 A 
ATOM     25  CZ  PHE A   1     -32.382 -10.210  20.443  0.00  0.00    +0.000 A 
ATOM     26  CE2 PHE A   1     -32.604 -11.571  20.217  0.00  0.00    +0.000 A 
ATOM     27  CD2 PHE A   1     -31.531 -12.467  20.229  0.00  0.00    +0.004 A 
ENDBRANCH  21  22
ENDBRANCH  16  21
ENDBRANCH   3  16
TORSDOF 7
ENDMDL
