MODEL 1
REMARK VINA RESULT:    -3.653      0.000      0.000
REMARK INTER + INTRA:          -5.103
REMARK INTER:                  -4.508
REMARK INTRA:                  -0.595
REMARK UNBOUND:                -0.595
REMARK  Name = 
REMARK  6 active torsions:
REMARK  status: ('A' for Active; 'I' for Inactive)
REMARK    1  A    between atoms: C_1  and  C_2
REMARK    2  A    between atoms: C_2  and  C_3
REMARK    3  A    between atoms: C_3  and  C_4
REMARK    4  A    between atoms: C_3  and  N_6
REMARK    5  A    between atoms: C_4  and  C_5
REMARK    6  A    between atoms: C_10  and  N_14
REMARK                            x       y       z     vdW  Elec       q    Type
REMARK                         _______ _______ _______ _____ _____    ______ ____
ROOT
ATOM      1  N   UNL     1     -30.479 -11.308  18.819  0.00  0.00    -0.311 N 
ATOM      2  C   UNL     1     -29.279 -11.952  19.266  0.00  0.00    +0.217 A 
ATOM      3  N   UNL     1     -28.080 -11.654  18.701  0.00  0.00    -0.221 NA
ATOM      4  C   UNL     1     -26.938 -12.258  19.116  0.00  0.00    +0.150 A 
ATOM      5  C   UNL     1     -26.973 -13.200  20.154  0.00  0.00    +0.184 A 
ATOM      6  C   UNL     1     -28.231 -13.518  20.711  0.00  0.00    +0.152 A 
ATOM      7  N   UNL     1     -28.384 -14.537  21.704  0.00  0.00    -0.341 N 
ATOM      8  N   UNL     1     -29.343 -12.879  20.256  0.00  0.00    -0.198 NA
ATOM      9  H   UNL     1     -31.374 -11.555  19.298  0.00  0.00    +0.149 HD
ATOM     10  H   UNL     1     -29.316 -14.690  22.148  0.00  0.00    +0.144 HD
ATOM     11  H   UNL     1     -27.626 -15.220  21.920  0.00  0.00    +0.144 HD
ENDROOT
BRANCH   5  12
ATOM     12  N   UNL     1     -25.749 -13.782  20.629  0.00  0.00    +0.061 N 
ATOM     13  O   UNL     1     -25.511 -13.871  21.981  0.00  0.00    -0.126 OA
ATOM     14  O   UNL     1     -24.997 -14.398  19.844  0.00  0.00    -0.126 OA
ENDBRANCH   5  12
BRANCH   1  15
ATOM     15  C   UNL     1     -30.480 -10.301  17.750  0.00  0.00    +0.073 C 
BRANCH  15  17
ATOM     16  C   UNL     1     -31.853 -10.334  15.589  0.00  0.00    +0.006 C 
ATOM     17  C   UNL     1     -30.723 -10.993  16.380  0.00  0.00    +0.019 C 
ENDBRANCH  15  17
BRANCH  15  18
ATOM     18  C   UNL     1     -31.548  -9.226  18.059  0.00  0.00    +0.019 C 
ATOM     19  C   UNL     1     -31.393  -8.609  19.448  0.00  0.00    +0.006 C 
ENDBRANCH  15  18
ENDBRANCH   1  15
TORSDOF 4
ENDMDL
MODEL 2
REMARK VINA RESULT:    -3.622      0.980      1.200
REMARK INTER + INTRA:          -5.064
REMARK INTER:                  -4.399
REMARK INTRA:                  -0.664
REMARK UNBOUND:                -0.595
REMARK  Name = 
REMARK  6 active torsions:
REMARK  status: ('A' for Active; 'I' for Inactive)
REMARK    1  A    between atoms: C_1  and  C_2
REMARK    2  A    between atoms: C_2  and  C_3
REMARK    3  A    between atoms: C_3  and  C_4
REMARK    4  A    between atoms: C_3  and  N_6
REMARK    5  A    between atoms: C_4  and  C_5
REMARK    6  A    between atoms: C_10  and  N_14
REMARK                            x       y       z     vdW  Elec       q    Type
REMARK                         _______ _______ _______ _____ _____    ______ ____
ROOT
ATOM      1  N   UNL     1     -30.622 -11.798  17.802  0.00  0.00    -0.311 N 
ATOM      2  C   UNL     1     -29.443 -12.208  18.507  0.00  0.00    +0.217 A 
ATOM      3  N   UNL     1     -28.214 -11.793  18.103  0.00  0.00    -0.221 NA
ATOM      4  C   UNL     1     -27.092 -12.175  18.762  0.00  0.00    +0.150 A 
ATOM      5  C   UNL     1     -27.181 -13.002  19.890  0.00  0.00    +0.184 A 
ATOM      6  C   UNL     1     -28.463 -13.446  20.280  0.00  0.00    +0.152 A 
ATOM      7  N   UNL     1     -28.649 -14.371  21.355  0.00  0.00    -0.341 N 
ATOM      8  N   UNL     1     -29.554 -13.030  19.582  0.00  0.00    -0.198 NA
ATOM      9  H   UNL     1     -31.547 -12.126  18.164  0.00  0.00    +0.149 HD
ATOM     10  H   UNL     1     -29.616 -14.617  21.664  0.00  0.00    +0.144 HD
ATOM     11  H   UNL     1     -27.858 -14.909  21.769  0.00  0.00    +0.144 HD
ENDROOT
BRANCH   5  12
ATOM     12  N   UNL     1     -25.991 -13.344  20.618  0.00  0.00    +0.061 N 
ATOM     13  O   UNL     1     -26.059 -13.581  21.971  0.00  0.00    -0.126 OA
ATOM     14  O   UNL     1     -24.941 -13.637  20.008  0.00  0.00    -0.126 OA
ENDBRANCH   5  12
BRANCH   1  15
ATOM     15  C   UNL     1     -30.572 -10.915  16.630  0.00  0.00    +0.073 C 
BRANCH  15  17
ATOM     16  C   UNL     1     -30.949 -12.845  14.991  0.00  0.00    +0.006 C 
ATOM     17  C   UNL     1     -31.463 -11.498  15.499  0.00  0.00    +0.019 C 
ENDBRANCH  15  17
BRANCH  15  18
ATOM     18  C   UNL     1     -31.007  -9.489  17.042  0.00  0.00    +0.019 C 
ATOM     19  C   UNL     1     -32.492  -9.392  17.390  0.00  0.00    +0.006 C 
ENDBRANCH  15  18
ENDBRANCH   1  15
TORSDOF 4
ENDMDL
MODEL 3
REMARK VINA RESULT:    -3.573      3.585      4.696
REMARK INTER + INTRA:          -5.004
REMARK INTER:                  -4.399
REMARK INTRA:                  -0.605
REMARK UNBOUND:                -0.595
REMARK  Name = 
REMARK  6 active torsions:
REMARK  status: ('A' for Active; 'I' for Inactive)
REMARK    1  A    between atoms: C_1  and  C_2
REMARK    2  A    between atoms: C_2  and  C_3
REMARK    3  A    between atoms: C_3  and  C_4
REMARK    4  A    between atoms: C_3  and  N_6
REMARK    5  A    between atoms: C_4  and  C_5
REMARK    6  A    between atoms: C_10  and  N_14
REMARK                            x       y       z     vdW  Elec       q    Type
REMARK                         _______ _______ _______ _____ _____    ______ ____
ROOT
ATOM      1  N   UNL     1     -29.016 -14.135  16.659  0.00  0.00    -0.311 N 
ATOM      2  C   UNL     1     -29.221 -13.041  17.562  0.00  0.00    +0.217 A 
ATOM      3  N   UNL     1     -29.785 -11.882  17.131  0.00  0.00    -0.221 NA
ATOM      4  C   UNL     1     -29.983 -10.841  17.977  0.00  0.00    +0.150 A 
ATOM      5  C   UNL     1     -29.618 -10.945  19.326  0.00  0.00    +0.184 A 
ATOM      6  C   UNL     1     -29.008 -12.146  19.751  0.00  0.00    +0.152 A 
ATOM      7  N   UNL     1     -28.511 -12.313  21.082  0.00  0.00    -0.341 N 
ATOM      8  N   UNL     1     -28.836 -13.158  18.859  0.00  0.00    -0.198 NA
ATOM      9  H   UNL     1     -28.598 -15.013  17.042  0.00  0.00    +0.149 HD
ATOM     10  H   UNL     1     -28.137 -13.240  21.382  0.00  0.00    +0.144 HD
ATOM     11  H   UNL     1     -28.393 -11.509  21.736  0.00  0.00    +0.144 HD
ENDROOT
BRANCH   5  12
ATOM     12  N   UNL     1     -29.895  -9.860  20.226  0.00  0.00    +0.061 N 
ATOM     13  O   UNL     1     -29.916 -10.082  21.583  0.00  0.00    -0.126 OA
ATOM     14  O   UNL     1     -29.905  -8.683  19.809  0.00  0.00    -0.126 OA
ENDBRANCH   5  12
BRANCH   1  15
ATOM     15  C   UNL     1     -29.404 -14.071  15.244  0.00  0.00    +0.073 C 
BRANCH  15  17
ATOM     16  C   UNL     1     -28.177 -14.509  13.041  0.00  0.00    +0.006 C 
ATOM     17  C   UNL     1     -28.537 -15.062  14.420  0.00  0.00    +0.019 C 
ENDBRANCH  15  17
BRANCH  15  18
ATOM     18  C   UNL     1     -30.916 -14.369  15.114  0.00  0.00    +0.019 C 
ATOM     19  C   UNL     1     -31.665 -13.323  14.290  0.00  0.00    +0.006 C 
ENDBRANCH  15  18
ENDBRANCH   1  15
TORSDOF 4
ENDMDL
MODEL 4
REMARK VINA RESULT:    -3.556      3.015      4.237
REMARK INTER + INTRA:          -4.983
REMARK INTER:                  -4.371
REMARK INTRA:                  -0.612
REMARK UNBOUND:                -0.595
REMARK  Name = 
REMARK  6 active torsions:
REMARK  status: ('A' for Active; 'I' for Inactive)
REMARK    1  A    between atoms: C_1  and  C_2
REMARK    2  A    between atoms: C_2  and  C_3
REMARK    3  A    between atoms: C_3  and  C_4
REMARK    4  A    between atoms: C_3  and  N_6
REMARK    5  A    between atoms: C_4  and  C_5
REMARK    6  A    between atoms: C_10  and  N_14
REMARK                            x       y       z     vdW  Elec       q    Type
REMARK                         _______ _______ _______ _____ _____    ______ ____
ROOT
ATOM      1  N   UNL     1     -31.818 -12.877  14.921  0.00  0.00    -0.311 N 
ATOM      2  C   UNL     1     -31.008 -12.441  16.021  0.00  0.00    +0.217 A 
ATOM      3  N   UNL     1     -30.776 -11.119  16.229  0.00  0.00    -0.221 NA
ATOM      4  C   UNL     1     -30.011 -10.695  17.266  0.00  0.00    +0.150 A 
ATOM      5  C   UNL     1     -29.452 -11.621  18.157  0.00  0.00    +0.184 A 
ATOM      6  C   UNL     1     -29.681 -12.992  17.910  0.00  0.00    +0.152 A 
ATOM      7  N   UNL     1     -29.073 -14.016  18.703  0.00  0.00    -0.341 N 
ATOM      8  N   UNL     1     -30.458 -13.360  16.856  0.00  0.00    -0.198 NA
ATOM      9  H   UNL     1     -31.986 -13.903  14.814  0.00  0.00    +0.149 HD
ATOM     10  H   UNL     1     -29.326 -15.016  18.540  0.00  0.00    +0.144 HD
ATOM     11  H   UNL     1     -28.290 -13.818  19.362  0.00  0.00    +0.144 HD
ENDROOT
BRANCH   5  12
ATOM     12  N   UNL     1     -28.700 -11.155  19.290  0.00  0.00    +0.061 N 
ATOM     13  O   UNL     1     -29.334 -10.462  20.295  0.00  0.00    -0.126 OA
ATOM     14  O   UNL     1     -27.531 -11.553  19.477  0.00  0.00    -0.126 OA
ENDBRANCH   5  12
BRANCH   1  15
ATOM     15  C   UNL     1     -32.438 -11.937  13.979  0.00  0.00    +0.073 C 
BRANCH  15  17
ATOM     16  C   UNL     1     -33.772 -12.718  11.938  0.00  0.00    +0.006 C 
ATOM     17  C   UNL     1     -32.381 -12.524  12.542  0.00  0.00    +0.019 C 
ENDBRANCH  15  17
BRANCH  15  18
ATOM     18  C   UNL     1     -33.887 -11.638  14.431  0.00  0.00    +0.019 C 
ATOM     19  C   UNL     1     -34.089 -10.193  14.885  0.00  0.00    +0.006 C 
ENDBRANCH  15  18
ENDBRANCH   1  15
TORSDOF 4
ENDMDL
MODEL 5
REMARK VINA RESULT:    -3.534      3.607      4.843
REMARK INTER + INTRA:          -4.955
REMARK INTER:                  -4.304
REMARK INTRA:                  -0.651
REMARK UNBOUND:                -0.595
REMARK  Name = 
REMARK  6 active torsions:
REMARK  status: ('A' for Active; 'I' for Inactive)
REMARK    1  A    between atoms: C_1  and  C_2
REMARK    2  A    between atoms: C_2  and  C_3
REMARK    3  A    between atoms: C_3  and  C_4
REMARK    4  A    between atoms: C_3  and  N_6
REMARK    5  A    between atoms: C_4  and  C_5
REMARK    6  A    between atoms: C_10  and  N_14
REMARK                            x       y       z     vdW  Elec       q    Type
REMARK                         _______ _______ _______ _____ _____    ______ ____
ROOT
ATOM      1  N   UNL     1     -31.068 -14.063  15.341  0.00  0.00    -0.311 N 
ATOM      2  C   UNL     1     -30.674 -13.367  16.530  0.00  0.00    +0.217 A 
ATOM      3  N   UNL     1     -30.043 -12.166  16.454  0.00  0.00    -0.221 NA
ATOM      4  C   UNL     1     -29.667 -11.498  17.573  0.00  0.00    +0.150 A 
ATOM      5  C   UNL     1     -29.935 -12.033  18.840  0.00  0.00    +0.184 A 
ATOM      6  C   UNL     1     -30.568 -13.294  18.901  0.00  0.00    +0.152 A 
ATOM      7  N   UNL     1     -30.795 -13.968  20.142  0.00  0.00    -0.341 N 
ATOM      8  N   UNL     1     -30.925 -13.918  17.746  0.00  0.00    -0.198 NA
ATOM      9  H   UNL     1     -31.570 -14.974  15.451  0.00  0.00    +0.149 HD
ATOM     10  H   UNL     1     -31.334 -14.862  20.155  0.00  0.00    +0.144 HD
ATOM     11  H   UNL     1     -30.340 -13.666  21.030  0.00  0.00    +0.144 HD
ENDROOT
BRANCH   5  12
ATOM     12  N   UNL     1     -29.592 -11.284  20.017  0.00  0.00    +0.061 N 
ATOM     13  O   UNL     1     -29.722  -9.914  20.020  0.00  0.00    -0.126 OA
ATOM     14  O   UNL     1     -29.382 -11.871  21.099  0.00  0.00    -0.126 OA
ENDBRANCH   5  12
BRANCH   1  15
ATOM     15  C   UNL     1     -30.823 -13.526  13.996  0.00  0.00    +0.073 C 
BRANCH  15  17
ATOM     16  C   UNL     1     -28.668 -14.579  13.100  0.00  0.00    +0.006 C 
ATOM     17  C   UNL     1     -30.196 -14.629  13.100  0.00  0.00    +0.019 C 
ENDBRANCH  15  17
BRANCH  15  18
ATOM     18  C   UNL     1     -32.147 -12.981  13.413  0.00  0.00    +0.019 C 
ATOM     19  C   UNL     1     -32.387 -13.408  11.966  0.00  0.00    +0.006 C 
ENDBRANCH  15  18
ENDBRANCH   1  15
TORSDOF 4
ENDMDL
MODEL 6
REMARK VINA RESULT:    -3.518      3.494      4.772
REMARK INTER + INTRA:          -4.935
REMARK INTER:                  -4.367
REMARK INTRA:                  -0.568
REMARK UNBOUND:                -0.595
REMARK  Name = 
REMARK  6 active torsions:
REMARK  status: ('A' for Active; 'I' for Inactive)
REMARK    1  A    between atoms: C_1  and  C_2
REMARK    2  A    between atoms: C_2  and  C_3
REMARK    3  A    between atoms: C_3  and  C_4
REMARK    4  A    between atoms: C_3  and  N_6
REMARK    5  A    between atoms: C_4  and  C_5
REMARK    6  A    between atoms: C_10  and  N_14
REMARK                            x       y       z     vdW  Elec       q    Type
REMARK                         _______ _______ _______ _____ _____    ______ ____
ROOT
ATOM      1  N   UNL     1     -29.244 -13.940  15.288  0.00  0.00    -0.311 N 
ATOM      2  C   UNL     1     -29.395 -13.678  16.689  0.00  0.00    +0.217 A 
ATOM      3  N   UNL     1     -30.613 -13.773  17.284  0.00  0.00    -0.221 NA
ATOM      4  C   UNL     1     -30.767 -13.528  18.610  0.00  0.00    +0.150 A 
ATOM      5  C   UNL     1     -29.662 -13.181  19.399  0.00  0.00    +0.184 A 
ATOM      6  C   UNL     1     -28.410 -13.060  18.759  0.00  0.00    +0.152 A 
ATOM      7  N   UNL     1     -27.243 -12.615  19.457  0.00  0.00    -0.341 N 
ATOM      8  N   UNL     1     -28.313 -13.320  17.427  0.00  0.00    -0.198 NA
ATOM      9  H   UNL     1     -28.284 -13.875  14.879  0.00  0.00    +0.149 HD
ATOM     10  H   UNL     1     -26.319 -12.613  18.970  0.00  0.00    +0.144 HD
ATOM     11  H   UNL     1     -27.294 -12.176  20.401  0.00  0.00    +0.144 HD
ENDROOT
BRANCH   5  12
ATOM     12  N   UNL     1     -29.829 -12.990  20.813  0.00  0.00    +0.061 N 
ATOM     13  O   UNL     1     -28.778 -13.235  21.666  0.00  0.00    -0.126 OA
ATOM     14  O   UNL     1     -30.839 -12.404  21.255  0.00  0.00    -0.126 OA
ENDBRANCH   5  12
BRANCH   1  15
ATOM     15  C   UNL     1     -30.373 -14.326  14.432  0.00  0.00    +0.073 C 
BRANCH  15  17
ATOM     16  C   UNL     1     -32.059 -13.280  12.814  0.00  0.00    +0.006 C 
ATOM     17  C   UNL     1     -31.204 -13.066  14.063  0.00  0.00    +0.019 C 
ENDBRANCH  15  17
BRANCH  15  18
ATOM     18  C   UNL     1     -29.840 -15.062  13.181  0.00  0.00    +0.019 C 
ATOM     19  C   UNL     1     -28.349 -14.834  12.940  0.00  0.00    +0.006 C 
ENDBRANCH  15  18
ENDBRANCH   1  15
TORSDOF 4
ENDMDL
MODEL 7
REMARK VINA RESULT:    -3.483      4.451      6.427
REMARK INTER + INTRA:          -4.893
REMARK INTER:                  -4.591
REMARK INTRA:                  -0.302
REMARK UNBOUND:                -0.595
REMARK  Name = 
REMARK  6 active torsions:
REMARK  status: ('A' for Active; 'I' for Inactive)
REMARK    1  A    between atoms: C_1  and  C_2
REMARK    2  A    between atoms: C_2  and  C_3
REMARK    3  A    between atoms: C_3  and  C_4
REMARK    4  A    between atoms: C_3  and  N_6
REMARK    5  A    between atoms: C_4  and  C_5
REMARK    6  A    between atoms: C_10  and  N_14
REMARK                            x       y       z     vdW  Elec       q    Type
REMARK                         _______ _______ _______ _____ _____    ______ ____
ROOT
ATOM      1  N   UNL     1     -32.050 -11.864  14.074  0.00  0.00    -0.311 N 
ATOM      2  C   UNL     1     -31.724 -11.123  15.257  0.00  0.00    +0.217 A 
ATOM      3  N   UNL     1     -30.622 -11.433  15.988  0.00  0.00    -0.221 NA
ATOM      4  C   UNL     1     -30.304 -10.738  17.108  0.00  0.00    +0.150 A 
ATOM      5  C   UNL     1     -31.106  -9.668  17.529  0.00  0.00    +0.184 A 
ATOM      6  C   UNL     1     -32.262  -9.377  16.773  0.00  0.00    +0.152 A 
ATOM      7  N   UNL     1     -33.196  -8.370  17.176  0.00  0.00    -0.341 N 
ATOM      8  N   UNL     1     -32.531 -10.106  15.657  0.00  0.00    -0.198 NA
ATOM      9  H   UNL     1     -32.897 -11.574  13.533  0.00  0.00    +0.149 HD
ATOM     10  H   UNL     1     -33.997  -8.129  16.552  0.00  0.00    +0.144 HD
ATOM     11  H   UNL     1     -33.180  -7.947  18.128  0.00  0.00    +0.144 HD
ENDROOT
BRANCH   5  12
ATOM     12  N   UNL     1     -30.720  -8.898  18.679  0.00  0.00    +0.061 N 
ATOM     13  O   UNL     1     -31.597  -7.985  19.218  0.00  0.00    -0.126 OA
ATOM     14  O   UNL     1     -29.691  -9.196  19.321  0.00  0.00    -0.126 OA
ENDBRANCH   5  12
BRANCH   1  15
ATOM     15  C   UNL     1     -31.224 -12.977  13.590  0.00  0.00    +0.073 C 
BRANCH  15  17
ATOM     16  C   UNL     1     -29.840 -14.789  14.755  0.00  0.00    +0.006 C 
ATOM     17  C   UNL     1     -31.208 -14.115  14.647  0.00  0.00    +0.019 C 
ENDBRANCH  15  17
BRANCH  15  18
ATOM     18  C   UNL     1     -31.762 -13.458  12.222  0.00  0.00    +0.019 C 
ATOM     19  C   UNL     1     -33.267 -13.251  12.062  0.00  0.00    +0.006 C 
ENDBRANCH  15  18
ENDBRANCH   1  15
TORSDOF 4
ENDMDL
MODEL 8
REMARK VINA RESULT:    -3.321      5.432      6.817
REMARK INTER + INTRA:          -4.692
REMARK INTER:                  -4.032
REMARK INTRA:                  -0.660
REMARK UNBOUND:                -0.595
REMARK  Name = 
REMARK  6 active torsions:
REMARK  status: ('A' for Active; 'I' for Inactive)
REMARK    1  A    between atoms: C_1  and  C_2
REMARK    2  A    between atoms: C_2  and  C_3
REMARK    3  A    between atoms: C_3  and  C_4
REMARK    4  A    between atoms: C_3  and  N_6
REMARK    5  A    between atoms: C_4  and  C_5
REMARK    6  A    between atoms: C_10  and  N_14
REMARK                            x       y       z     vdW  Elec       q    Type
REMARK                         _______ _______ _______ _____ _____    ______ ____
ROOT
ATOM      1  N   UNL     1     -31.682 -11.879  13.926  0.00  0.00    -0.311 N 
ATOM      2  C   UNL     1     -32.133 -11.547  15.245  0.00  0.00    +0.217 A 
ATOM      3  N   UNL     1     -32.709 -12.488  16.038  0.00  0.00    -0.221 NA
ATOM      4  C   UNL     1     -33.139 -12.184  17.288  0.00  0.00    +0.150 A 
ATOM      5  C   UNL     1     -32.986 -10.886  17.794  0.00  0.00    +0.184 A 
ATOM      6  C   UNL     1     -32.411  -9.915  16.946  0.00  0.00    +0.152 A 
ATOM      7  N   UNL     1     -32.303  -8.541  17.333  0.00  0.00    -0.341 N 
ATOM      8  N   UNL     1     -31.996 -10.276  15.702  0.00  0.00    -0.198 NA
ATOM      9  H   UNL     1     -31.227 -11.126  13.361  0.00  0.00    +0.149 HD
ATOM     10  H   UNL     1     -31.802  -7.867  16.713  0.00  0.00    +0.144 HD
ATOM     11  H   UNL     1     -32.810  -8.155  18.158  0.00  0.00    +0.144 HD
ENDROOT
BRANCH   5  12
ATOM     12  N   UNL     1     -33.385 -10.596  19.143  0.00  0.00    +0.061 N 
ATOM     13  O   UNL     1     -33.094 -11.486  20.151  0.00  0.00    -0.126 OA
ATOM     14  O   UNL     1     -33.798  -9.457  19.447  0.00  0.00    -0.126 OA
ENDBRANCH   5  12
BRANCH   1  15
ATOM     15  C   UNL     1     -31.806 -13.232  13.368  0.00  0.00    +0.073 C 
BRANCH  15  17
ATOM     16  C   UNL     1     -33.823 -12.569  11.938  0.00  0.00    +0.006 C 
ATOM     17  C   UNL     1     -32.411 -13.155  11.939  0.00  0.00    +0.019 C 
ENDBRANCH  15  17
BRANCH  15  18
ATOM     18  C   UNL     1     -30.421 -13.921  13.381  0.00  0.00    +0.019 C 
ATOM     19  C   UNL     1     -30.174 -14.749  14.641  0.00  0.00    +0.006 C 
ENDBRANCH  15  18
ENDBRANCH   1  15
TORSDOF 4
ENDMDL
