MODEL 1
REMARK VINA RESULT:    -5.102      0.000      0.000
REMARK INTER + INTRA:          -7.661
REMARK INTER:                  -6.593
REMARK INTRA:                  -1.068
REMARK UNBOUND:                -1.068
REMARK  Name = 
REMARK  7 active torsions:
REMARK  status: ('A' for Active; 'I' for Inactive)
REMARK    1  A    between atoms: C_1  and  O_2
REMARK    2  A    between atoms: O_2  and  C_3
REMARK    3  A    between atoms: C_6  and  C_9
REMARK    4  A    between atoms: C_9  and  N_10
REMARK    5  A    between atoms: C_9  and  C_21
REMARK    6  A    between atoms: C_11  and  C_13
REMARK    7  A    between atoms: C_16  and  C_17
REMARK                            x       y       z     vdW  Elec       q    Type
REMARK                         _______ _______ _______ _____ _____    ______ ____
ROOT
ATOM      1  C   UNL     1     -31.352  -9.878  17.278  0.00  0.00    +0.134 C 
ENDROOT
BRANCH   1   5
ATOM      2  C   UNL     1     -33.574 -11.393  13.873  0.00  0.00    +0.120 A 
ATOM      3  C   UNL     1     -32.425 -12.056  14.317  0.00  0.00    +0.046 A 
ATOM      4  C   UNL     1     -31.701 -11.570  15.408  0.00  0.00    +0.009 A 
ATOM      5  C   UNL     1     -32.112 -10.399  16.073  0.00  0.00    -0.023 A 
ATOM      6  C   UNL     1     -33.271  -9.740  15.633  0.00  0.00    +0.009 A 
ATOM      7  C   UNL     1     -33.995 -10.229  14.541  0.00  0.00    +0.046 A 
BRANCH   2   9
ATOM      8  C   UNL     1     -33.773 -12.963  11.938  0.00  0.00    +0.277 C 
ATOM      9  O   UNL     1     -34.267 -11.922  12.773  0.00  0.00    -0.495 OA
ENDBRANCH   2   9
ENDBRANCH   1   5
BRANCH   1  10
ATOM     10  C   UNL     1     -32.324  -9.523  18.385  0.00  0.00    -0.023 A 
ATOM     11  C   UNL     1     -32.951 -10.549  19.114  0.00  0.00    +0.006 A 
ATOM     12  C   UNL     1     -33.824 -10.243  20.161  0.00  0.00    +0.000 A 
ATOM     13  C   UNL     1     -34.072  -8.911  20.500  0.00  0.00    +0.000 A 
ATOM     14  C   UNL     1     -33.443  -7.882  19.796  0.00  0.00    +0.000 A 
ATOM     15  C   UNL     1     -32.567  -8.183  18.748  0.00  0.00    +0.006 A 
ENDBRANCH   1  10
BRANCH   1  16
ATOM     16  N   UNL     1     -30.344 -10.845  17.733  0.00  0.00    -0.300 N 
ATOM     17  C   UNL     1     -29.480 -10.574  18.849  0.00  0.00    +0.250 C 
ATOM     18  O   UNL     1     -29.454  -9.418  19.354  0.00  0.00    -0.270 OA
ATOM     19  H   UNL     1     -30.171 -11.711  17.174  0.00  0.00    +0.150 HD
BRANCH  17  20
ATOM     20  C   UNL     1     -28.591 -11.626  19.401  0.00  0.00    +0.101 A 
ATOM     21  C   UNL     1     -29.099 -12.532  20.343  0.00  0.00    +0.020 A 
ATOM     22  C   UNL     1     -28.281 -13.525  20.879  0.00  0.00    +0.022 A 
ATOM     23  C   UNL     1     -26.944 -13.610  20.474  0.00  0.00    +0.016 A 
ATOM     24  C   UNL     1     -26.064 -14.696  21.017  0.00  0.00    +0.063 C 
ATOM     25  N   UNL     1     -26.468 -12.748  19.530  0.00  0.00    -0.326 N 
ATOM     26  C   UNL     1     -27.250 -11.772  18.986  0.00  0.00    +0.261 A 
ATOM     27  O   UNL     1     -26.768 -11.024  18.093  0.00  0.00    -0.267 OA
ATOM     28  H   UNL     1     -25.479 -12.841  19.203  0.00  0.00    +0.169 HD
ENDBRANCH  17  20
ENDBRANCH   1  16
TORSDOF 5
ENDMDL
MODEL 2
REMARK VINA RESULT:    -5.048      2.355      4.736
REMARK INTER + INTRA:          -7.592
REMARK INTER:                  -6.331
REMARK INTRA:                  -1.261
REMARK UNBOUND:                -1.068
REMARK  Name = 
REMARK  7 active torsions:
REMARK  status: ('A' for Active; 'I' for Inactive)
REMARK    1  A    between atoms: C_1  and  O_2
REMARK    2  A    between atoms: O_2  and  C_3
REMARK    3  A    between atoms: C_6  and  C_9
REMARK    4  A    between atoms: C_9  and  N_10
REMARK    5  A    between atoms: C_9  and  C_21
REMARK    6  A    between atoms: C_11  and  C_13
REMARK    7  A    between atoms: C_16  and  C_17
REMARK                            x       y       z     vdW  Elec       q    Type
REMARK                         _______ _______ _______ _____ _____    ______ ____
ROOT
ATOM      1  C   UNL     1     -32.105 -12.824  16.436  0.00  0.00    +0.134 C 
ENDROOT
BRANCH   1   5
ATOM      2  C   UNL     1     -34.056  -8.996  17.043  0.00  0.00    +0.120 A 
ATOM      3  C   UNL     1     -34.797 -10.181  17.094  0.00  0.00    +0.046 A 
ATOM      4  C   UNL     1     -34.176 -11.417  16.893  0.00  0.00    +0.009 A 
ATOM      5  C   UNL     1     -32.796 -11.487  16.626  0.00  0.00    -0.023 A 
ATOM      6  C   UNL     1     -32.052 -10.297  16.584  0.00  0.00    +0.009 A 
ATOM      7  C   UNL     1     -32.675  -9.061  16.786  0.00  0.00    +0.046 A 
BRANCH   2   9
ATOM      8  C   UNL     1     -34.739  -7.072  18.486  0.00  0.00    +0.277 C 
ATOM      9  O   UNL     1     -34.726  -7.781  17.252  0.00  0.00    -0.495 OA
ENDBRANCH   2   9
ENDBRANCH   1   5
BRANCH   1  10
ATOM     10  C   UNL     1     -31.854 -13.068  14.961  0.00  0.00    -0.023 A 
ATOM     11  C   UNL     1     -30.828 -13.945  14.567  0.00  0.00    +0.006 A 
ATOM     12  C   UNL     1     -30.603 -14.210  13.214  0.00  0.00    +0.000 A 
ATOM     13  C   UNL     1     -31.406 -13.612  12.239  0.00  0.00    +0.000 A 
ATOM     14  C   UNL     1     -32.439 -12.752  12.617  0.00  0.00    +0.000 A 
ATOM     15  C   UNL     1     -32.669 -12.484  13.970  0.00  0.00    +0.006 A 
ENDBRANCH   1  10
BRANCH   1  16
ATOM     16  N   UNL     1     -30.861 -12.897  17.214  0.00  0.00    -0.300 N 
ATOM     17  C   UNL     1     -30.867 -13.069  18.641  0.00  0.00    +0.250 C 
ATOM     18  O   UNL     1     -31.953 -12.985  19.277  0.00  0.00    -0.270 OA
ATOM     19  H   UNL     1     -29.946 -12.717  16.742  0.00  0.00    +0.150 HD
BRANCH  17  20
ATOM     20  C   UNL     1     -29.608 -13.314  19.386  0.00  0.00    +0.101 A 
ATOM     21  C   UNL     1     -29.648 -13.443  20.782  0.00  0.00    +0.020 A 
ATOM     22  C   UNL     1     -28.476 -13.667  21.503  0.00  0.00    +0.022 A 
ATOM     23  C   UNL     1     -27.256 -13.760  20.825  0.00  0.00    +0.016 A 
ATOM     24  C   UNL     1     -25.994 -14.037  21.587  0.00  0.00    +0.063 C 
ATOM     25  N   UNL     1     -27.231 -13.670  19.464  0.00  0.00    -0.326 N 
ATOM     26  C   UNL     1     -28.364 -13.457  18.736  0.00  0.00    +0.261 A 
ATOM     27  O   UNL     1     -28.288 -13.415  17.478  0.00  0.00    -0.267 OA
ATOM     28  H   UNL     1     -26.321 -13.778  18.960  0.00  0.00    +0.169 HD
ENDBRANCH  17  20
ENDBRANCH   1  16
TORSDOF 5
ENDMDL
MODEL 3
REMARK VINA RESULT:    -5.024      2.311      7.079
REMARK INTER + INTRA:          -7.561
REMARK INTER:                  -6.165
REMARK INTRA:                  -1.396
REMARK UNBOUND:                -1.068
REMARK  Name = 
REMARK  7 active torsions:
REMARK  status: ('A' for Active; 'I' for Inactive)
REMARK    1  A    between atoms: C_1  and  O_2
REMARK    2  A    between atoms: O_2  and  C_3
REMARK    3  A    between atoms: C_6  and  C_9
REMARK    4  A    between atoms: C_9  and  N_10
REMARK    5  A    between atoms: C_9  and  C_21
REMARK    6  A    between atoms: C_11  and  C_13
REMARK    7  A    between atoms: C_16  and  C_17
REMARK                            x       y       z     vdW  Elec       q    Type
REMARK                         _______ _______ _______ _____ _____    ______ ____
ROOT
ATOM      1  C   UNL     1     -30.993 -11.389  19.298  0.00  0.00    +0.134 C 
ENDROOT
BRANCH   1   5
ATOM      2  C   UNL     1     -27.005 -13.030  19.771  0.00  0.00    +0.120 A 
ATOM      3  C   UNL     1     -28.060 -13.503  20.558  0.00  0.00    +0.046 A 
ATOM      4  C   UNL     1     -29.346 -12.974  20.416  0.00  0.00    +0.009 A 
ATOM      5  C   UNL     1     -29.597 -11.950  19.483  0.00  0.00    -0.023 A 
ATOM      6  C   UNL     1     -28.539 -11.483  18.687  0.00  0.00    +0.009 A 
ATOM      7  C   UNL     1     -27.253 -12.014  18.830  0.00  0.00    +0.046 A 
BRANCH   2   9
ATOM      8  C   UNL     1     -25.402 -14.518  20.982  0.00  0.00    +0.277 C 
ATOM      9  O   UNL     1     -25.733 -13.594  19.952  0.00  0.00    -0.495 OA
ENDBRANCH   2   9
ENDBRANCH   1   5
BRANCH   1  10
ATOM     10  C   UNL     1     -31.074 -10.001  19.902  0.00  0.00    -0.023 A 
ATOM     11  C   UNL     1     -31.640  -8.952  19.155  0.00  0.00    +0.006 A 
ATOM     12  C   UNL     1     -31.754  -7.672  19.706  0.00  0.00    +0.000 A 
ATOM     13  C   UNL     1     -31.319  -7.429  21.011  0.00  0.00    +0.000 A 
ATOM     14  C   UNL     1     -30.770  -8.466  21.769  0.00  0.00    +0.000 A 
ATOM     15  C   UNL     1     -30.654  -9.748  21.223  0.00  0.00    +0.006 A 
ENDBRANCH   1  10
BRANCH   1  16
ATOM     16  N   UNL     1     -31.384 -11.385  17.881  0.00  0.00    -0.300 N 
ATOM     17  C   UNL     1     -32.369 -12.295  17.362  0.00  0.00    +0.250 C 
ATOM     18  O   UNL     1     -32.792 -13.237  18.085  0.00  0.00    -0.270 OA
ATOM     19  H   UNL     1     -30.864 -10.782  17.205  0.00  0.00    +0.150 HD
BRANCH  17  20
ATOM     20  C   UNL     1     -32.874 -12.162  15.974  0.00  0.00    +0.101 A 
ATOM     21  C   UNL     1     -32.009 -12.412  14.899  0.00  0.00    +0.020 A 
ATOM     22  C   UNL     1     -32.460 -12.288  13.586  0.00  0.00    +0.022 A 
ATOM     23  C   UNL     1     -33.785 -11.907  13.346  0.00  0.00    +0.016 A 
ATOM     24  C   UNL     1     -34.292 -11.805  11.938  0.00  0.00    +0.063 C 
ATOM     25  N   UNL     1     -34.630 -11.701  14.397  0.00  0.00    -0.326 N 
ATOM     26  C   UNL     1     -34.214 -11.822  15.690  0.00  0.00    +0.261 A 
ATOM     27  O   UNL     1     -35.046 -11.652  16.622  0.00  0.00    -0.267 OA
ATOM     28  H   UNL     1     -35.629 -11.453  14.210  0.00  0.00    +0.169 HD
ENDBRANCH  17  20
ENDBRANCH   1  16
TORSDOF 5
ENDMDL
MODEL 4
REMARK VINA RESULT:    -4.836      2.076      4.735
REMARK INTER + INTRA:          -7.318
REMARK INTER:                  -5.573
REMARK INTRA:                  -1.745
REMARK UNBOUND:                -1.068
REMARK  Name = 
REMARK  7 active torsions:
REMARK  status: ('A' for Active; 'I' for Inactive)
REMARK    1  A    between atoms: C_1  and  O_2
REMARK    2  A    between atoms: O_2  and  C_3
REMARK    3  A    between atoms: C_6  and  C_9
REMARK    4  A    between atoms: C_9  and  N_10
REMARK    5  A    between atoms: C_9  and  C_21
REMARK    6  A    between atoms: C_11  and  C_13
REMARK    7  A    between atoms: C_16  and  C_17
REMARK                            x       y       z     vdW  Elec       q    Type
REMARK                         _______ _______ _______ _____ _____    ______ ____
ROOT
ATOM      1  C   UNL     1     -32.286 -11.501  18.462  0.00  0.00    +0.134 C 
ENDROOT
BRANCH   1   5
ATOM      2  C   UNL     1     -33.394  -7.609  20.028  0.00  0.00    +0.120 A 
ATOM      3  C   UNL     1     -32.338  -7.729  19.118  0.00  0.00    +0.046 A 
ATOM      4  C   UNL     1     -31.971  -8.980  18.615  0.00  0.00    +0.009 A 
ATOM      5  C   UNL     1     -32.654 -10.141  19.023  0.00  0.00    -0.023 A 
ATOM      6  C   UNL     1     -33.720 -10.018  19.929  0.00  0.00    +0.009 A 
ATOM      7  C   UNL     1     -34.086  -8.765  20.431  0.00  0.00    +0.046 A 
BRANCH   2   9
ATOM      8  C   UNL     1     -33.137  -5.122  20.032  0.00  0.00    +0.277 C 
ATOM      9  O   UNL     1     -33.723  -6.331  20.503  0.00  0.00    -0.495 OA
ENDBRANCH   2   9
ENDBRANCH   1   5
BRANCH   1  10
ATOM     10  C   UNL     1     -32.600 -11.549  16.980  0.00  0.00    -0.023 A 
ATOM     11  C   UNL     1     -33.941 -11.554  16.555  0.00  0.00    +0.006 A 
ATOM     12  C   UNL     1     -34.252 -11.564  15.193  0.00  0.00    +0.000 A 
ATOM     13  C   UNL     1     -33.231 -11.556  14.240  0.00  0.00    +0.000 A 
ATOM     14  C   UNL     1     -31.895 -11.534  14.649  0.00  0.00    +0.000 A 
ATOM     15  C   UNL     1     -31.578 -11.523  16.011  0.00  0.00    +0.006 A 
ENDBRANCH   1  10
BRANCH   1  16
ATOM     16  N   UNL     1     -30.877 -11.824  18.726  0.00  0.00    -0.300 N 
ATOM     17  C   UNL     1     -30.443 -12.362  19.987  0.00  0.00    +0.250 C 
ATOM     18  O   UNL     1     -31.247 -12.403  20.958  0.00  0.00    -0.270 OA
ATOM     19  H   UNL     1     -30.148 -11.563  18.023  0.00  0.00    +0.150 HD
BRANCH  17  20
ATOM     20  C   UNL     1     -29.053 -12.842  20.175  0.00  0.00    +0.101 A 
ATOM     21  C   UNL     1     -28.785 -13.811  21.152  0.00  0.00    +0.020 A 
ATOM     22  C   UNL     1     -27.485 -14.273  21.350  0.00  0.00    +0.022 A 
ATOM     23  C   UNL     1     -26.444 -13.759  20.569  0.00  0.00    +0.016 A 
ATOM     24  C   UNL     1     -25.047 -14.273  20.748  0.00  0.00    +0.063 C 
ATOM     25  N   UNL     1     -26.718 -12.843  19.596  0.00  0.00    -0.326 N 
ATOM     26  C   UNL     1     -27.983 -12.380  19.379  0.00  0.00    +0.261 A 
ATOM     27  O   UNL     1     -28.185 -11.558  18.444  0.00  0.00    -0.267 OA
ATOM     28  H   UNL     1     -25.942 -12.490  18.990  0.00  0.00    +0.169 HD
ENDBRANCH  17  20
ENDBRANCH   1  16
TORSDOF 5
ENDMDL
MODEL 5
REMARK VINA RESULT:    -4.588      3.005      6.295
REMARK INTER + INTRA:          -6.997
REMARK INTER:                  -5.529
REMARK INTRA:                  -1.469
REMARK UNBOUND:                -1.068
REMARK  Name = 
REMARK  7 active torsions:
REMARK  status: ('A' for Active; 'I' for Inactive)
REMARK    1  A    between atoms: C_1  and  O_2
REMARK    2  A    between atoms: O_2  and  C_3
REMARK    3  A    between atoms: C_6  and  C_9
REMARK    4  A    between atoms: C_9  and  N_10
REMARK    5  A    between atoms: C_9  and  C_21
REMARK    6  A    between atoms: C_11  and  C_13
REMARK    7  A    between atoms: C_16  and  C_17
REMARK                            x       y       z     vdW  Elec       q    Type
REMARK                         _______ _______ _______ _____ _____    ______ ____
ROOT
ATOM      1  C   UNL     1     -31.204 -12.944  17.393  0.00  0.00    +0.134 C 
ENDROOT
BRANCH   1   5
ATOM      2  C   UNL     1     -29.604 -14.461  13.657  0.00  0.00    +0.120 A 
ATOM      3  C   UNL     1     -29.114 -14.936  14.878  0.00  0.00    +0.046 A 
ATOM      4  C   UNL     1     -29.621 -14.447  16.085  0.00  0.00    +0.009 A 
ATOM      5  C   UNL     1     -30.625 -13.462  16.091  0.00  0.00    -0.023 A 
ATOM      6  C   UNL     1     -31.122 -12.992  14.864  0.00  0.00    +0.009 A 
ATOM      7  C   UNL     1     -30.615 -13.484  13.656  0.00  0.00    +0.046 A 
BRANCH   2   9
ATOM      8  C   UNL     1     -27.789 -14.631  11.946  0.00  0.00    +0.277 C 
ATOM      9  O   UNL     1     -29.063 -14.984  12.473  0.00  0.00    -0.495 OA
ENDBRANCH   2   9
ENDBRANCH   1   5
BRANCH   1  10
ATOM     10  C   UNL     1     -30.107 -12.826  18.433  0.00  0.00    -0.023 A 
ATOM     11  C   UNL     1     -28.978 -12.033  18.163  0.00  0.00    +0.006 A 
ATOM     12  C   UNL     1     -27.972 -11.883  19.121  0.00  0.00    +0.000 A 
ATOM     13  C   UNL     1     -28.087 -12.513  20.363  0.00  0.00    +0.000 A 
ATOM     14  C   UNL     1     -29.211 -13.291  20.650  0.00  0.00    +0.000 A 
ATOM     15  C   UNL     1     -30.221 -13.443  19.695  0.00  0.00    +0.006 A 
ENDBRANCH   1  10
BRANCH   1  16
ATOM     16  N   UNL     1     -31.903 -11.666  17.197  0.00  0.00    -0.300 N 
ATOM     17  C   UNL     1     -32.866 -11.174  18.144  0.00  0.00    +0.250 C 
ATOM     18  O   UNL     1     -33.259 -11.920  19.081  0.00  0.00    -0.270 OA
ATOM     19  H   UNL     1     -31.781 -11.145  16.299  0.00  0.00    +0.150 HD
BRANCH  17  20
ATOM     20  C   UNL     1     -33.430  -9.808  18.018  0.00  0.00    +0.101 A 
ATOM     21  C   UNL     1     -33.938  -9.166  19.156  0.00  0.00    +0.020 A 
ATOM     22  C   UNL     1     -34.480  -7.885  19.061  0.00  0.00    +0.022 A 
ATOM     23  C   UNL     1     -34.516  -7.242  17.818  0.00  0.00    +0.016 A 
ATOM     24  C   UNL     1     -35.062  -5.850  17.709  0.00  0.00    +0.063 C 
ATOM     25  N   UNL     1     -33.986  -7.859  16.723  0.00  0.00    -0.326 N 
ATOM     26  C   UNL     1     -33.446  -9.110  16.792  0.00  0.00    +0.261 A 
ATOM     27  O   UNL     1     -32.941  -9.620  15.755  0.00  0.00    -0.267 OA
ATOM     28  H   UNL     1     -33.982  -7.359  15.804  0.00  0.00    +0.169 HD
ENDBRANCH  17  20
ENDBRANCH   1  16
TORSDOF 5
ENDMDL
MODEL 6
REMARK VINA RESULT:    -4.537      2.506      5.890
REMARK INTER + INTRA:          -6.931
REMARK INTER:                  -5.352
REMARK INTRA:                  -1.579
REMARK UNBOUND:                -1.068
REMARK  Name = 
REMARK  7 active torsions:
REMARK  status: ('A' for Active; 'I' for Inactive)
REMARK    1  A    between atoms: C_1  and  O_2
REMARK    2  A    between atoms: O_2  and  C_3
REMARK    3  A    between atoms: C_6  and  C_9
REMARK    4  A    between atoms: C_9  and  N_10
REMARK    5  A    between atoms: C_9  and  C_21
REMARK    6  A    between atoms: C_11  and  C_13
REMARK    7  A    between atoms: C_16  and  C_17
REMARK                            x       y       z     vdW  Elec       q    Type
REMARK                         _______ _______ _______ _____ _____    ______ ____
ROOT
ATOM      1  C   UNL     1     -31.142 -12.697  18.260  0.00  0.00    +0.134 C 
ENDROOT
BRANCH   1   5
ATOM      2  C   UNL     1     -30.591 -14.075  14.183  0.00  0.00    +0.120 A 
ATOM      3  C   UNL     1     -30.141 -14.851  15.257  0.00  0.00    +0.046 A 
ATOM      4  C   UNL     1     -30.309 -14.410  16.572  0.00  0.00    +0.009 A 
ATOM      5  C   UNL     1     -30.926 -13.173  16.837  0.00  0.00    -0.023 A 
ATOM      6  C   UNL     1     -31.386 -12.399  15.758  0.00  0.00    +0.009 A 
ATOM      7  C   UNL     1     -31.218 -12.842  14.442  0.00  0.00    +0.046 A 
BRANCH   2   9
ATOM      8  C   UNL     1     -29.162 -15.062  12.385  0.00  0.00    +0.277 C 
ATOM      9  O   UNL     1     -30.398 -14.562  12.882  0.00  0.00    -0.495 OA
ENDBRANCH   2   9
ENDBRANCH   1   5
BRANCH   1  10
ATOM     10  C   UNL     1     -29.840 -12.776  19.033  0.00  0.00    -0.023 A 
ATOM     11  C   UNL     1     -29.808 -13.442  20.271  0.00  0.00    +0.006 A 
ATOM     12  C   UNL     1     -28.610 -13.556  20.982  0.00  0.00    +0.000 A 
ATOM     13  C   UNL     1     -27.431 -13.018  20.461  0.00  0.00    +0.000 A 
ATOM     14  C   UNL     1     -27.446 -12.369  19.225  0.00  0.00    +0.000 A 
ATOM     15  C   UNL     1     -28.642 -12.253  18.508  0.00  0.00    +0.006 A 
ENDBRANCH   1  10
BRANCH   1  16
ATOM     16  N   UNL     1     -31.706 -11.340  18.290  0.00  0.00    -0.300 N 
ATOM     17  C   UNL     1     -32.539 -10.887  19.370  0.00  0.00    +0.250 C 
ATOM     18  O   UNL     1     -32.948 -11.711  20.232  0.00  0.00    -0.270 OA
ATOM     19  H   UNL     1     -31.589 -10.715  17.460  0.00  0.00    +0.150 HD
BRANCH  17  20
ATOM     20  C   UNL     1     -32.955  -9.467  19.469  0.00  0.00    +0.101 A 
ATOM     21  C   UNL     1     -33.926  -9.098  20.411  0.00  0.00    +0.020 A 
ATOM     22  C   UNL     1     -34.337  -7.770  20.518  0.00  0.00    +0.022 A 
ATOM     23  C   UNL     1     -33.776  -6.804  19.675  0.00  0.00    +0.016 A 
ATOM     24  C   UNL     1     -34.183  -5.367  19.805  0.00  0.00    +0.063 C 
ATOM     25  N   UNL     1     -32.805  -7.165  18.786  0.00  0.00    -0.326 N 
ATOM     26  C   UNL     1     -32.383  -8.456  18.667  0.00  0.00    +0.261 A 
ATOM     27  O   UNL     1     -31.460  -8.728  17.852  0.00  0.00    -0.267 OA
ATOM     28  H   UNL     1     -32.363  -6.433  18.185  0.00  0.00    +0.169 HD
ENDBRANCH  17  20
ENDBRANCH   1  16
TORSDOF 5
ENDMDL
MODEL 7
REMARK VINA RESULT:    -4.513      2.332      7.285
REMARK INTER + INTRA:          -6.900
REMARK INTER:                  -5.737
REMARK INTRA:                  -1.163
REMARK UNBOUND:                -1.068
REMARK  Name = 
REMARK  7 active torsions:
REMARK  status: ('A' for Active; 'I' for Inactive)
REMARK    1  A    between atoms: C_1  and  O_2
REMARK    2  A    between atoms: O_2  and  C_3
REMARK    3  A    between atoms: C_6  and  C_9
REMARK    4  A    between atoms: C_9  and  N_10
REMARK    5  A    between atoms: C_9  and  C_21
REMARK    6  A    between atoms: C_11  and  C_13
REMARK    7  A    between atoms: C_16  and  C_17
REMARK                            x       y       z     vdW  Elec       q    Type
REMARK                         _______ _______ _______ _____ _____    ______ ____
ROOT
ATOM      1  C   UNL     1     -30.210 -10.939  17.477  0.00  0.00    +0.134 C 
ENDROOT
BRANCH   1   5
ATOM      2  C   UNL     1     -28.534 -13.510  20.544  0.00  0.00    +0.120 A 
ATOM      3  C   UNL     1     -27.692 -12.809  19.675  0.00  0.00    +0.046 A 
ATOM      4  C   UNL     1     -28.226 -11.984  18.680  0.00  0.00    +0.009 A 
ATOM      5  C   UNL     1     -29.619 -11.854  18.533  0.00  0.00    -0.023 A 
ATOM      6  C   UNL     1     -30.463 -12.551  19.412  0.00  0.00    +0.009 A 
ATOM      7  C   UNL     1     -29.927 -13.376  20.408  0.00  0.00    +0.046 A 
BRANCH   2   9
ATOM      8  C   UNL     1     -26.584 -14.253  21.921  0.00  0.00    +0.277 C 
ATOM      9  O   UNL     1     -27.949 -14.325  21.526  0.00  0.00    -0.495 OA
ENDBRANCH   2   9
ENDBRANCH   1   5
BRANCH   1  10
ATOM     10  C   UNL     1     -30.716 -11.762  16.308  0.00  0.00    -0.023 A 
ATOM     11  C   UNL     1     -31.656 -11.205  15.424  0.00  0.00    +0.006 A 
ATOM     12  C   UNL     1     -32.110 -11.934  14.321  0.00  0.00    +0.000 A 
ATOM     13  C   UNL     1     -31.621 -13.220  14.082  0.00  0.00    +0.000 A 
ATOM     14  C   UNL     1     -30.674 -13.779  14.943  0.00  0.00    +0.000 A 
ATOM     15  C   UNL     1     -30.216 -13.053  16.048  0.00  0.00    +0.006 A 
ENDBRANCH   1  10
BRANCH   1  16
ATOM     16  N   UNL     1     -31.270 -10.090  18.039  0.00  0.00    -0.300 N 
ATOM     17  C   UNL     1     -30.981  -9.016  18.949  0.00  0.00    +0.250 C 
ATOM     18  O   UNL     1     -29.818  -8.892  19.421  0.00  0.00    -0.270 OA
ATOM     19  H   UNL     1     -32.272 -10.331  17.861  0.00  0.00    +0.150 HD
BRANCH  17  20
ATOM     20  C   UNL     1     -32.039  -8.065  19.368  0.00  0.00    +0.101 A 
ATOM     21  C   UNL     1     -31.690  -6.936  20.122  0.00  0.00    +0.020 A 
ATOM     22  C   UNL     1     -32.668  -6.032  20.533  0.00  0.00    +0.022 A 
ATOM     23  C   UNL     1     -34.006  -6.260  20.190  0.00  0.00    +0.016 A 
ATOM     24  C   UNL     1     -35.062  -5.276  20.595  0.00  0.00    +0.063 C 
ATOM     25  N   UNL     1     -34.332  -7.341  19.425  0.00  0.00    -0.326 N 
ATOM     26  C   UNL     1     -33.392  -8.237  19.007  0.00  0.00    +0.261 A 
ATOM     27  O   UNL     1     -33.745  -9.201  18.274  0.00  0.00    -0.267 OA
ATOM     28  H   UNL     1     -35.328  -7.486  19.141  0.00  0.00    +0.169 HD
ENDBRANCH  17  20
ENDBRANCH   1  16
TORSDOF 5
ENDMDL
MODEL 8
REMARK VINA RESULT:    -4.009      2.267      6.903
REMARK INTER + INTRA:          -6.250
REMARK INTER:                  -4.870
REMARK INTRA:                  -1.380
REMARK UNBOUND:                -1.068
REMARK  Name = 
REMARK  7 active torsions:
REMARK  status: ('A' for Active; 'I' for Inactive)
REMARK    1  A    between atoms: C_1  and  O_2
REMARK    2  A    between atoms: O_2  and  C_3
REMARK    3  A    between atoms: C_6  and  C_9
REMARK    4  A    between atoms: C_9  and  N_10
REMARK    5  A    between atoms: C_9  and  C_21
REMARK    6  A    between atoms: C_11  and  C_13
REMARK    7  A    between atoms: C_16  and  C_17
REMARK                            x       y       z     vdW  Elec       q    Type
REMARK                         _______ _______ _______ _____ _____    ______ ____
ROOT
ATOM      1  C   UNL     1     -30.957 -10.145  18.993  0.00  0.00    +0.134 C 
ENDROOT
BRANCH   1   5
ATOM      2  C   UNL     1     -33.811  -7.851  21.321  0.00  0.00    +0.120 A 
ATOM      3  C   UNL     1     -32.666  -7.236  20.804  0.00  0.00    +0.046 A 
ATOM      4  C   UNL     1     -31.739  -7.970  20.059  0.00  0.00    +0.009 A 
ATOM      5  C   UNL     1     -31.939  -9.343  19.825  0.00  0.00    -0.023 A 
ATOM      6  C   UNL     1     -33.094  -9.958  20.337  0.00  0.00    +0.009 A 
ATOM      7  C   UNL     1     -34.021  -9.221  21.081  0.00  0.00    +0.046 A 
BRANCH   2   9
ATOM      8  C   UNL     1     -35.062  -5.728  21.742  0.00  0.00    +0.277 C 
ATOM      9  O   UNL     1     -34.711  -7.070  22.062  0.00  0.00    -0.495 OA
ENDBRANCH   2   9
ENDBRANCH   1   5
BRANCH   1  10
ATOM     10  C   UNL     1     -30.266 -11.176  19.864  0.00  0.00    -0.023 A 
ATOM     11  C   UNL     1     -30.083 -12.483  19.379  0.00  0.00    +0.006 A 
ATOM     12  C   UNL     1     -29.420 -13.440  20.152  0.00  0.00    +0.000 A 
ATOM     13  C   UNL     1     -28.921 -13.099  21.412  0.00  0.00    +0.000 A 
ATOM     14  C   UNL     1     -29.082 -11.800  21.899  0.00  0.00    +0.000 A 
ATOM     15  C   UNL     1     -29.744 -10.839  21.129  0.00  0.00    +0.006 A 
ENDBRANCH   1  10
BRANCH   1  16
ATOM     16  N   UNL     1     -31.618 -10.768  17.839  0.00  0.00    -0.300 N 
ATOM     17  C   UNL     1     -31.347 -10.350  16.491  0.00  0.00    +0.250 C 
ATOM     18  O   UNL     1     -30.660  -9.312  16.284  0.00  0.00    -0.270 OA
ATOM     19  H   UNL     1     -32.383 -11.463  17.996  0.00  0.00    +0.150 HD
BRANCH  17  20
ATOM     20  C   UNL     1     -31.890 -11.102  15.334  0.00  0.00    +0.101 A 
ATOM     21  C   UNL     1     -31.305 -12.324  14.971  0.00  0.00    +0.020 A 
ATOM     22  C   UNL     1     -31.795 -13.045  13.883  0.00  0.00    +0.022 A 
ATOM     23  C   UNL     1     -32.875 -12.540  13.151  0.00  0.00    +0.016 A 
ATOM     24  C   UNL     1     -33.434 -13.325  12.002  0.00  0.00    +0.063 C 
ATOM     25  N   UNL     1     -33.463 -11.370  13.534  0.00  0.00    -0.326 N 
ATOM     26  C   UNL     1     -33.005 -10.649  14.597  0.00  0.00    +0.261 A 
ATOM     27  O   UNL     1     -33.606  -9.590  14.926  0.00  0.00    -0.267 OA
ATOM     28  H   UNL     1     -34.293 -11.017  13.005  0.00  0.00    +0.169 HD
ENDBRANCH  17  20
ENDBRANCH   1  16
TORSDOF 5
ENDMDL
MODEL 9
REMARK VINA RESULT:    -3.882      2.633      6.960
REMARK INTER + INTRA:          -6.085
REMARK INTER:                  -5.471
REMARK INTRA:                  -0.615
REMARK UNBOUND:                -1.068
REMARK  Name = 
REMARK  7 active torsions:
REMARK  status: ('A' for Active; 'I' for Inactive)
REMARK    1  A    between atoms: C_1  and  O_2
REMARK    2  A    between atoms: O_2  and  C_3
REMARK    3  A    between atoms: C_6  and  C_9
REMARK    4  A    between atoms: C_9  and  N_10
REMARK    5  A    between atoms: C_9  and  C_21
REMARK    6  A    between atoms: C_11  and  C_13
REMARK    7  A    between atoms: C_16  and  C_17
REMARK                            x       y       z     vdW  Elec       q    Type
REMARK                         _______ _______ _______ _____ _____    ______ ____
ROOT
ATOM      1  C   UNL     1     -30.847 -10.085  17.424  0.00  0.00    +0.134 C 
ENDROOT
BRANCH   1   5
ATOM      2  C   UNL     1     -28.814 -13.145  19.733  0.00  0.00    +0.120 A 
ATOM      3  C   UNL     1     -30.212 -13.095  19.705  0.00  0.00    +0.046 A 
ATOM      4  C   UNL     1     -30.873 -12.108  18.969  0.00  0.00    +0.009 A 
ATOM      5  C   UNL     1     -30.142 -11.143  18.251  0.00  0.00    -0.023 A 
ATOM      6  C   UNL     1     -28.739 -11.200  18.272  0.00  0.00    +0.009 A 
ATOM      7  C   UNL     1     -28.079 -12.189  19.008  0.00  0.00    +0.046 A 
BRANCH   2   9
ATOM      8  C   UNL     1     -27.400 -13.924  21.641  0.00  0.00    +0.277 C 
ATOM      9  O   UNL     1     -28.198 -14.156  20.486  0.00  0.00    -0.495 OA
ENDBRANCH   2   9
ENDBRANCH   1   5
BRANCH   1  10
ATOM     10  C   UNL     1     -31.537 -10.733  16.240  0.00  0.00    -0.023 A 
ATOM     11  C   UNL     1     -30.961 -11.864  15.636  0.00  0.00    +0.006 A 
ATOM     12  C   UNL     1     -31.598 -12.496  14.564  0.00  0.00    +0.000 A 
ATOM     13  C   UNL     1     -32.821 -12.014  14.092  0.00  0.00    +0.000 A 
ATOM     14  C   UNL     1     -33.412 -10.900  14.694  0.00  0.00    +0.000 A 
ATOM     15  C   UNL     1     -32.779 -10.265  15.767  0.00  0.00    +0.006 A 
ENDBRANCH   1  10
BRANCH   1  16
ATOM     16  N   UNL     1     -31.791  -9.310  18.241  0.00  0.00    -0.300 N 
ATOM     17  C   UNL     1     -31.351  -8.477  19.327  0.00  0.00    +0.250 C 
ATOM     18  O   UNL     1     -30.151  -8.533  19.711  0.00  0.00    -0.270 OA
ATOM     19  H   UNL     1     -32.819  -9.441  18.105  0.00  0.00    +0.150 HD
BRANCH  17  20
ATOM     20  C   UNL     1     -32.294  -7.572  20.026  0.00  0.00    +0.101 A 
ATOM     21  C   UNL     1     -33.636  -7.953  20.169  0.00  0.00    +0.020 A 
ATOM     22  C   UNL     1     -34.543  -7.115  20.817  0.00  0.00    +0.022 A 
ATOM     23  C   UNL     1     -34.105  -5.886  21.324  0.00  0.00    +0.016 A 
ATOM     24  C   UNL     1     -35.062  -4.993  22.055  0.00  0.00    +0.063 C 
ATOM     25  N   UNL     1     -32.790  -5.540  21.214  0.00  0.00    -0.326 N 
ATOM     26  C   UNL     1     -31.884  -6.344  20.589  0.00  0.00    +0.261 A 
ATOM     27  O   UNL     1     -30.674  -5.990  20.545  0.00  0.00    -0.267 OA
ATOM     28  H   UNL     1     -32.462  -4.637  21.627  0.00  0.00    +0.169 HD
ENDBRANCH  17  20
ENDBRANCH   1  16
TORSDOF 5
ENDMDL
