MODEL 1
REMARK VINA RESULT:    -4.767      0.000      0.000
REMARK INTER + INTRA:          -6.826
REMARK INTER:                  -6.161
REMARK INTRA:                  -0.665
REMARK UNBOUND:                -0.665
REMARK  Name = 
REMARK  6 active torsions:
REMARK  status: ('A' for Active; 'I' for Inactive)
REMARK    1  A    between atoms: C_1  and  C_2
REMARK    2  A    between atoms: C_2  and  C_3
REMARK    3  A    between atoms: N_5  and  C_6
REMARK    4  A    between atoms: C_9  and  S_12
REMARK    5  A    between atoms: S_12  and  N_15
REMARK    6  A    between atoms: C_19  and  C_21
REMARK                            x       y       z     vdW  Elec       q    Type
REMARK                         _______ _______ _______ _____ _____    ______ ____
ROOT
ATOM      1  S   UNL     1     -32.805  -8.870  19.131  0.00  0.00    +0.061 S 
ATOM      2  O   UNL     1     -33.574  -7.609  18.842  0.00  0.00    -0.153 OA
ATOM      3  O   UNL     1     -33.460  -9.597  20.270  0.00  0.00    -0.153 OA
ENDROOT
BRANCH   1   7
ATOM      4  C   UNL     1     -32.857 -11.569  15.436  0.00  0.00    +0.033 A 
ATOM      5  C   UNL     1     -33.517 -11.961  16.610  0.00  0.00    +0.025 A 
ATOM      6  C   UNL     1     -33.508 -11.139  17.740  0.00  0.00    +0.030 A 
ATOM      7  C   UNL     1     -32.828  -9.914  17.714  0.00  0.00    +0.106 A 
ATOM      8  C   UNL     1     -32.148  -9.527  16.553  0.00  0.00    +0.030 A 
ATOM      9  C   UNL     1     -32.152 -10.351  15.423  0.00  0.00    +0.025 A 
BRANCH   4  12
ATOM     10  C   UNL     1     -33.734 -12.315  13.166  0.00  0.00    +0.217 C 
ATOM     11  O   UNL     1     -34.728 -11.541  13.210  0.00  0.00    -0.275 OA
ATOM     12  N   UNL     1     -32.860 -12.451  14.299  0.00  0.00    -0.286 N 
ATOM     13  H   UNL     1     -32.246 -13.297  14.333  0.00  0.00    +0.155 HD
BRANCH  10  15
ATOM     14  C   UNL     1     -32.095 -13.734  11.941  0.00  0.00    +0.013 C 
ATOM     15  C   UNL     1     -33.501 -13.141  11.938  0.00  0.00    +0.093 C 
ENDBRANCH  10  15
ENDBRANCH   4  12
ENDBRANCH   1   7
BRANCH   1  16
ATOM     16  N   UNL     1     -31.144  -8.480  19.530  0.00  0.00    -0.172 NA
ATOM     17  C   UNL     1     -31.027  -7.945  20.904  0.00  0.00    +0.137 C 
ATOM     18  C   UNL     1     -30.373  -8.933  21.886  0.00  0.00    +0.178 C 
ATOM     19  O   UNL     1     -30.802 -10.259  21.653  0.00  0.00    -0.369 OA
ATOM     20  C   UNL     1     -30.439 -10.731  20.361  0.00  0.00    +0.164 C 
ATOM     21  C   UNL     1     -30.243  -9.620  19.291  0.00  0.00    +0.146 C 
BRANCH  20  22
ATOM     22  C   UNL     1     -29.266 -11.690  20.457  0.00  0.00    -0.018 A 
ATOM     23  C   UNL     1     -28.332 -11.754  19.406  0.00  0.00    +0.007 A 
ATOM     24  C   UNL     1     -27.262 -12.651  19.458  0.00  0.00    +0.020 A 
ATOM     25  C   UNL     1     -27.113 -13.503  20.555  0.00  0.00    +0.041 A 
ATOM     26 CL   UNL     1     -25.759 -14.613  20.624  0.00  0.00    -0.084 Cl
ATOM     27  C   UNL     1     -28.042 -13.461  21.599  0.00  0.00    +0.020 A 
ATOM     28  C   UNL     1     -29.119 -12.569  21.549  0.00  0.00    +0.007 A 
ENDBRANCH  20  22
ENDBRANCH   1  16
TORSDOF 5
ENDMDL
MODEL 2
REMARK VINA RESULT:    -4.755      2.960      6.855
REMARK INTER + INTRA:          -6.810
REMARK INTER:                  -6.659
REMARK INTRA:                  -0.151
REMARK UNBOUND:                -0.665
REMARK  Name = 
REMARK  6 active torsions:
REMARK  status: ('A' for Active; 'I' for Inactive)
REMARK    1  A    between atoms: C_1  and  C_2
REMARK    2  A    between atoms: C_2  and  C_3
REMARK    3  A    between atoms: N_5  and  C_6
REMARK    4  A    between atoms: C_9  and  S_12
REMARK    5  A    between atoms: S_12  and  N_15
REMARK    6  A    between atoms: C_19  and  C_21
REMARK                            x       y       z     vdW  Elec       q    Type
REMARK                         _______ _______ _______ _____ _____    ______ ____
ROOT
ATOM      1  S   UNL     1     -32.770  -9.463  18.877  0.00  0.00    +0.061 S 
ATOM      2  O   UNL     1     -33.568  -8.852  19.996  0.00  0.00    -0.153 OA
ATOM      3  O   UNL     1     -32.083  -8.372  18.107  0.00  0.00    -0.153 OA
ENDROOT
BRANCH   1   7
ATOM      4  C   UNL     1     -29.595 -12.262  20.616  0.00  0.00    +0.033 A 
ATOM      5  C   UNL     1     -29.216 -11.092  19.942  0.00  0.00    +0.025 A 
ATOM      6  C   UNL     1     -30.182 -10.232  19.412  0.00  0.00    +0.030 A 
ATOM      7  C   UNL     1     -31.544 -10.536  19.542  0.00  0.00    +0.106 A 
ATOM      8  C   UNL     1     -31.928 -11.714  20.193  0.00  0.00    +0.030 A 
ATOM      9  C   UNL     1     -30.962 -12.578  20.719  0.00  0.00    +0.025 A 
BRANCH   4  12
ATOM     10  C   UNL     1     -27.488 -13.664  20.343  0.00  0.00    +0.217 C 
ATOM     11  O   UNL     1     -27.496 -13.570  19.086  0.00  0.00    -0.275 OA
ATOM     12  N   UNL     1     -28.576 -13.142  21.124  0.00  0.00    -0.286 N 
ATOM     13  H   UNL     1     -28.676 -13.493  22.104  0.00  0.00    +0.155 HD
BRANCH  10  15
ATOM     14  C   UNL     1     -25.020 -13.989  20.396  0.00  0.00    +0.013 C 
ATOM     15  C   UNL     1     -26.357 -14.378  21.019  0.00  0.00    +0.093 C 
ENDBRANCH  10  15
ENDBRANCH   4  12
ENDBRANCH   1   7
BRANCH   1  16
ATOM     16  N   UNL     1     -33.825 -10.383  17.822  0.00  0.00    -0.172 NA
ATOM     17  C   UNL     1     -34.553  -9.503  16.881  0.00  0.00    +0.137 C 
ATOM     18  C   UNL     1     -34.045  -9.613  15.432  0.00  0.00    +0.178 C 
ATOM     19  O   UNL     1     -32.639  -9.730  15.382  0.00  0.00    -0.369 OA
ATOM     20  C   UNL     1     -32.166 -10.908  16.026  0.00  0.00    +0.164 C 
ATOM     21  C   UNL     1     -33.102 -11.466  17.134  0.00  0.00    +0.146 C 
BRANCH  20  22
ATOM     22  C   UNL     1     -31.761 -11.949  14.998  0.00  0.00    -0.018 A 
ATOM     23  C   UNL     1     -30.820 -12.938  15.343  0.00  0.00    +0.007 A 
ATOM     24  C   UNL     1     -30.408 -13.887  14.405  0.00  0.00    +0.020 A 
ATOM     25  C   UNL     1     -30.921 -13.858  13.106  0.00  0.00    +0.041 A 
ATOM     26 CL   UNL     1     -30.414 -15.062  11.938  0.00  0.00    -0.084 Cl
ATOM     27  C   UNL     1     -31.844 -12.873  12.744  0.00  0.00    +0.020 A 
ATOM     28  C   UNL     1     -32.256 -11.916  13.679  0.00  0.00    +0.007 A 
ENDBRANCH  20  22
ENDBRANCH   1  16
TORSDOF 5
ENDMDL
MODEL 3
REMARK VINA RESULT:    -4.447      1.642      1.770
REMARK INTER + INTRA:          -6.411
REMARK INTER:                  -5.808
REMARK INTRA:                  -0.603
REMARK UNBOUND:                -0.665
REMARK  Name = 
REMARK  6 active torsions:
REMARK  status: ('A' for Active; 'I' for Inactive)
REMARK    1  A    between atoms: C_1  and  C_2
REMARK    2  A    between atoms: C_2  and  C_3
REMARK    3  A    between atoms: N_5  and  C_6
REMARK    4  A    between atoms: C_9  and  S_12
REMARK    5  A    between atoms: S_12  and  N_15
REMARK    6  A    between atoms: C_19  and  C_21
REMARK                            x       y       z     vdW  Elec       q    Type
REMARK                         _______ _______ _______ _____ _____    ______ ____
ROOT
ATOM      1  S   UNL     1     -32.547  -9.342  18.962  0.00  0.00    +0.061 S 
ATOM      2  O   UNL     1     -33.276  -8.088  18.561  0.00  0.00    -0.153 OA
ATOM      3  O   UNL     1     -33.397 -10.119  19.927  0.00  0.00    -0.153 OA
ENDROOT
BRANCH   1   7
ATOM      4  C   UNL     1     -31.797 -11.921  15.256  0.00  0.00    +0.033 A 
ATOM      5  C   UNL     1     -32.439 -12.464  16.380  0.00  0.00    +0.025 A 
ATOM      6  C   UNL     1     -32.673 -11.679  17.513  0.00  0.00    +0.030 A 
ATOM      7  C   UNL     1     -32.261 -10.340  17.540  0.00  0.00    +0.106 A 
ATOM      8  C   UNL     1     -31.600  -9.800  16.431  0.00  0.00    +0.030 A 
ATOM      9  C   UNL     1     -31.360 -10.585  15.299  0.00  0.00    +0.025 A 
BRANCH   4  12
ATOM     10  C   UNL     1     -30.490 -13.738  14.044  0.00  0.00    +0.217 C 
ATOM     11  O   UNL     1     -29.563 -13.747  14.898  0.00  0.00    -0.275 OA
ATOM     12  N   UNL     1     -31.544 -12.763  14.117  0.00  0.00    -0.286 N 
ATOM     13  H   UNL     1     -32.108 -12.600  13.252  0.00  0.00    +0.155 HD
BRANCH  10  15
ATOM     14  C   UNL     1     -29.020 -15.012  12.491  0.00  0.00    +0.013 C 
ATOM     15  C   UNL     1     -30.456 -14.719  12.912  0.00  0.00    +0.093 C 
ENDBRANCH  10  15
ENDBRANCH   4  12
ENDBRANCH   1   7
BRANCH   1  16
ATOM     16  N   UNL     1     -31.009  -8.933  19.695  0.00  0.00    -0.172 NA
ATOM     17  C   UNL     1     -31.158  -8.634  21.136  0.00  0.00    +0.137 C 
ATOM     18  C   UNL     1     -30.587  -9.737  22.046  0.00  0.00    +0.178 C 
ATOM     19  O   UNL     1     -30.861 -11.025  21.536  0.00  0.00    -0.369 OA
ATOM     20  C   UNL     1     -30.258 -11.249  20.266  0.00  0.00    +0.164 C 
ATOM     21  C   UNL     1     -29.989  -9.963  19.436  0.00  0.00    +0.146 C 
BRANCH  20  22
ATOM     22  C   UNL     1     -29.039 -12.142  20.408  0.00  0.00    -0.018 A 
ATOM     23  C   UNL     1     -27.974 -12.016  19.496  0.00  0.00    +0.007 A 
ATOM     24  C   UNL     1     -26.856 -12.848  19.587  0.00  0.00    +0.020 A 
ATOM     25  C   UNL     1     -26.787 -13.825  20.584  0.00  0.00    +0.041 A 
ATOM     26 CL   UNL     1     -25.374 -14.854  20.705  0.00  0.00    -0.084 Cl
ATOM     27  C   UNL     1     -27.844 -13.972  21.487  0.00  0.00    +0.020 A 
ATOM     28  C   UNL     1     -28.969 -13.145  21.397  0.00  0.00    +0.007 A 
ENDBRANCH  20  22
ENDBRANCH   1  16
TORSDOF 5
ENDMDL
MODEL 4
REMARK VINA RESULT:    -4.378      1.594      2.183
REMARK INTER + INTRA:          -6.323
REMARK INTER:                  -6.211
REMARK INTRA:                  -0.112
REMARK UNBOUND:                -0.665
REMARK  Name = 
REMARK  6 active torsions:
REMARK  status: ('A' for Active; 'I' for Inactive)
REMARK    1  A    between atoms: C_1  and  C_2
REMARK    2  A    between atoms: C_2  and  C_3
REMARK    3  A    between atoms: N_5  and  C_6
REMARK    4  A    between atoms: C_9  and  S_12
REMARK    5  A    between atoms: S_12  and  N_15
REMARK    6  A    between atoms: C_19  and  C_21
REMARK                            x       y       z     vdW  Elec       q    Type
REMARK                         _______ _______ _______ _____ _____    ______ ____
ROOT
ATOM      1  S   UNL     1     -31.593  -8.683  19.867  0.00  0.00    +0.061 S 
ATOM      2  O   UNL     1     -30.201  -8.114  19.831  0.00  0.00    -0.153 OA
ATOM      3  O   UNL     1     -32.551  -7.616  20.314  0.00  0.00    -0.153 OA
ENDROOT
BRANCH   1   7
ATOM      4  C   UNL     1     -32.783 -10.054  15.665  0.00  0.00    +0.033 A 
ATOM      5  C   UNL     1     -33.767  -9.768  16.623  0.00  0.00    +0.025 A 
ATOM      6  C   UNL     1     -33.409  -9.345  17.907  0.00  0.00    +0.030 A 
ATOM      7  C   UNL     1     -32.058  -9.211  18.253  0.00  0.00    +0.106 A 
ATOM      8  C   UNL     1     -31.071  -9.517  17.309  0.00  0.00    +0.030 A 
ATOM      9  C   UNL     1     -31.427  -9.945  16.026  0.00  0.00    +0.025 A 
BRANCH   4  12
ATOM     10  C   UNL     1     -33.616 -11.854  14.071  0.00  0.00    +0.217 C 
ATOM     11  O   UNL     1     -33.442 -12.782  14.906  0.00  0.00    -0.275 OA
ATOM     12  N   UNL     1     -33.183 -10.515  14.363  0.00  0.00    -0.286 N 
ATOM     13  H   UNL     1     -33.074  -9.859  13.556  0.00  0.00    +0.155 HD
BRANCH  10  15
ATOM     14  C   UNL     1     -33.356 -13.142  11.956  0.00  0.00    +0.013 C 
ATOM     15  C   UNL     1     -34.230 -12.169  12.741  0.00  0.00    +0.093 C 
ENDBRANCH  10  15
ENDBRANCH   4  12
ENDBRANCH   1   7
BRANCH   1  16
ATOM     16  N   UNL     1     -31.652 -10.053  20.957  0.00  0.00    -0.172 NA
ATOM     17  C   UNL     1     -32.567 -11.104  20.459  0.00  0.00    +0.137 C 
ATOM     18  C   UNL     1     -31.830 -12.350  19.936  0.00  0.00    +0.178 C 
ATOM     19  O   UNL     1     -30.661 -12.003  19.224  0.00  0.00    -0.369 OA
ATOM     20  C   UNL     1     -29.708 -11.327  20.037  0.00  0.00    +0.164 C 
ATOM     21  C   UNL     1     -30.307 -10.573  21.256  0.00  0.00    +0.146 C 
BRANCH  20  22
ATOM     22  C   UNL     1     -28.569 -12.261  20.405  0.00  0.00    -0.018 A 
ATOM     23  C   UNL     1     -28.533 -12.843  21.687  0.00  0.00    +0.007 A 
ATOM     24  C   UNL     1     -27.479 -13.681  22.059  0.00  0.00    +0.020 A 
ATOM     25  C   UNL     1     -26.440 -13.942  21.162  0.00  0.00    +0.041 A 
ATOM     26 CL   UNL     1     -25.129 -15.008  21.628  0.00  0.00    -0.084 Cl
ATOM     27  C   UNL     1     -26.454 -13.359  19.892  0.00  0.00    +0.020 A 
ATOM     28  C   UNL     1     -27.505 -12.515  19.516  0.00  0.00    +0.007 A 
ENDBRANCH  20  22
ENDBRANCH   1  16
TORSDOF 5
ENDMDL
MODEL 5
REMARK VINA RESULT:    -4.256      3.300      6.622
REMARK INTER + INTRA:          -6.165
REMARK INTER:                  -5.815
REMARK INTRA:                  -0.350
REMARK UNBOUND:                -0.665
REMARK  Name = 
REMARK  6 active torsions:
REMARK  status: ('A' for Active; 'I' for Inactive)
REMARK    1  A    between atoms: C_1  and  C_2
REMARK    2  A    between atoms: C_2  and  C_3
REMARK    3  A    between atoms: N_5  and  C_6
REMARK    4  A    between atoms: C_9  and  S_12
REMARK    5  A    between atoms: S_12  and  N_15
REMARK    6  A    between atoms: C_19  and  C_21
REMARK                            x       y       z     vdW  Elec       q    Type
REMARK                         _______ _______ _______ _____ _____    ______ ____
ROOT
ATOM      1  S   UNL     1     -32.998 -11.854  15.676  0.00  0.00    +0.061 S 
ATOM      2  O   UNL     1     -32.960 -12.568  14.352  0.00  0.00    -0.153 OA
ATOM      3  O   UNL     1     -34.343 -12.064  16.311  0.00  0.00    -0.153 OA
ENDROOT
BRANCH   1   7
ATOM      4  C   UNL     1     -29.783 -13.588  18.434  0.00  0.00    +0.033 A 
ATOM      5  C   UNL     1     -31.054 -13.274  18.936  0.00  0.00    +0.025 A 
ATOM      6  C   UNL     1     -32.041 -12.748  18.097  0.00  0.00    +0.030 A 
ATOM      7  C   UNL     1     -31.766 -12.519  16.743  0.00  0.00    +0.106 A 
ATOM      8  C   UNL     1     -30.492 -12.808  16.240  0.00  0.00    +0.030 A 
ATOM      9  C   UNL     1     -29.502 -13.330  17.079  0.00  0.00    +0.025 A 
BRANCH   4  12
ATOM     10  C   UNL     1     -27.805 -13.291  20.008  0.00  0.00    +0.217 C 
ATOM     11  O   UNL     1     -27.618 -12.091  19.670  0.00  0.00    -0.275 OA
ATOM     12  N   UNL     1     -28.780 -14.100  19.329  0.00  0.00    -0.286 N 
ATOM     13  H   UNL     1     -28.698 -15.138  19.430  0.00  0.00    +0.155 HD
BRANCH  10  15
ATOM     14  C   UNL     1     -25.520 -14.065  20.623  0.00  0.00    +0.013 C 
ATOM     15  C   UNL     1     -26.961 -13.889  21.092  0.00  0.00    +0.093 C 
ENDBRANCH  10  15
ENDBRANCH   4  12
ENDBRANCH   1   7
BRANCH   1  16
ATOM     16  N   UNL     1     -32.692 -10.144  15.444  0.00  0.00    -0.172 NA
ATOM     17  C   UNL     1     -33.934  -9.412  15.108  0.00  0.00    +0.137 C 
ATOM     18  C   UNL     1     -34.444  -8.525  16.258  0.00  0.00    +0.178 C 
ATOM     19  O   UNL     1     -34.286  -9.156  17.511  0.00  0.00    -0.369 OA
ATOM     20  C   UNL     1     -32.921  -9.413  17.824  0.00  0.00    +0.164 C 
ATOM     21  C   UNL     1     -31.984  -9.554  16.592  0.00  0.00    +0.146 C 
BRANCH  20  22
ATOM     22  C   UNL     1     -32.418  -8.419  18.855  0.00  0.00    -0.018 A 
ATOM     23  C   UNL     1     -31.203  -8.665  19.523  0.00  0.00    +0.007 A 
ATOM     24  C   UNL     1     -30.735  -7.781  20.498  0.00  0.00    +0.020 A 
ATOM     25  C   UNL     1     -31.476  -6.644  20.828  0.00  0.00    +0.041 A 
ATOM     26 CL   UNL     1     -30.875  -5.529  22.039  0.00  0.00    -0.084 Cl
ATOM     27  C   UNL     1     -32.691  -6.395  20.184  0.00  0.00    +0.020 A 
ATOM     28  C   UNL     1     -33.168  -7.279  19.210  0.00  0.00    +0.007 A 
ENDBRANCH  20  22
ENDBRANCH   1  16
TORSDOF 5
ENDMDL
MODEL 6
REMARK VINA RESULT:    -3.988      3.267      7.057
REMARK INTER + INTRA:          -5.819
REMARK INTER:                  -5.785
REMARK INTRA:                  -0.034
REMARK UNBOUND:                -0.665
REMARK  Name = 
REMARK  6 active torsions:
REMARK  status: ('A' for Active; 'I' for Inactive)
REMARK    1  A    between atoms: C_1  and  C_2
REMARK    2  A    between atoms: C_2  and  C_3
REMARK    3  A    between atoms: N_5  and  C_6
REMARK    4  A    between atoms: C_9  and  S_12
REMARK    5  A    between atoms: S_12  and  N_15
REMARK    6  A    between atoms: C_19  and  C_21
REMARK                            x       y       z     vdW  Elec       q    Type
REMARK                         _______ _______ _______ _____ _____    ______ ____
ROOT
ATOM      1  S   UNL     1     -32.865 -10.053  20.821  0.00  0.00    +0.061 S 
ATOM      2  O   UNL     1     -34.056 -10.968  20.732  0.00  0.00    -0.153 OA
ATOM      3  O   UNL     1     -32.986  -9.205  22.055  0.00  0.00    -0.153 OA
ENDROOT
BRANCH   1   7
ATOM      4  C   UNL     1     -29.024 -12.520  21.136  0.00  0.00    +0.033 A 
ATOM      5  C   UNL     1     -30.189 -13.087  20.598  0.00  0.00    +0.025 A 
ATOM      6  C   UNL     1     -31.364 -12.337  20.496  0.00  0.00    +0.030 A 
ATOM      7  C   UNL     1     -31.392 -11.008  20.941  0.00  0.00    +0.106 A 
ATOM      8  C   UNL     1     -30.239 -10.444  21.500  0.00  0.00    +0.030 A 
ATOM      9  C   UNL     1     -29.064 -11.195  21.607  0.00  0.00    +0.025 A 
BRANCH   4  12
ATOM     10  C   UNL     1     -26.766 -13.343  20.298  0.00  0.00    +0.217 C 
ATOM     11  O   UNL     1     -26.910 -12.818  19.162  0.00  0.00    -0.275 OA
ATOM     12  N   UNL     1     -27.839 -13.328  21.255  0.00  0.00    -0.286 N 
ATOM     13  H   UNL     1     -27.789 -14.012  22.044  0.00  0.00    +0.155 HD
BRANCH  10  15
ATOM     14  C   UNL     1     -25.585 -14.769  21.963  0.00  0.00    +0.013 C 
ATOM     15  C   UNL     1     -25.480 -14.038  20.629  0.00  0.00    +0.093 C 
ENDBRANCH  10  15
ENDBRANCH   4  12
ENDBRANCH   1   7
BRANCH   1  16
ATOM     16  N   UNL     1     -32.779  -9.042  19.393  0.00  0.00    -0.172 NA
ATOM     17  C   UNL     1     -31.386  -8.645  19.092  0.00  0.00    +0.137 C 
ATOM     18  C   UNL     1     -30.806  -9.357  17.857  0.00  0.00    +0.178 C 
ATOM     19  O   UNL     1     -31.207 -10.710  17.801  0.00  0.00    -0.369 OA
ATOM     20  C   UNL     1     -32.618 -10.856  17.680  0.00  0.00    +0.164 C 
ATOM     21  C   UNL     1     -33.447  -9.667  18.239  0.00  0.00    +0.146 C 
BRANCH  20  22
ATOM     22  C   UNL     1     -32.990 -11.237  16.258  0.00  0.00    -0.018 A 
ATOM     23  C   UNL     1     -32.159 -12.111  15.532  0.00  0.00    +0.007 A 
ATOM     24  C   UNL     1     -32.465 -12.452  14.212  0.00  0.00    +0.020 A 
ATOM     25  C   UNL     1     -33.599 -11.919  13.594  0.00  0.00    +0.041 A 
ATOM     26 CL   UNL     1     -33.987 -12.364  11.945  0.00  0.00    -0.084 Cl
ATOM     27  C   UNL     1     -34.425 -11.038  14.298  0.00  0.00    +0.020 A 
ATOM     28  C   UNL     1     -34.121 -10.689  15.619  0.00  0.00    +0.007 A 
ENDBRANCH  20  22
ENDBRANCH   1  16
TORSDOF 5
ENDMDL
MODEL 7
REMARK VINA RESULT:    -3.422      3.599      5.107
REMARK INTER + INTRA:          -5.087
REMARK INTER:                  -4.921
REMARK INTRA:                  -0.166
REMARK UNBOUND:                -0.665
REMARK  Name = 
REMARK  6 active torsions:
REMARK  status: ('A' for Active; 'I' for Inactive)
REMARK    1  A    between atoms: C_1  and  C_2
REMARK    2  A    between atoms: C_2  and  C_3
REMARK    3  A    between atoms: N_5  and  C_6
REMARK    4  A    between atoms: C_9  and  S_12
REMARK    5  A    between atoms: S_12  and  N_15
REMARK    6  A    between atoms: C_19  and  C_21
REMARK                            x       y       z     vdW  Elec       q    Type
REMARK                         _______ _______ _______ _____ _____    ______ ____
ROOT
ATOM      1  S   UNL     1     -28.680 -12.714  18.714  0.00  0.00    +0.061 S 
ATOM      2  O   UNL     1     -27.692 -13.849  18.751  0.00  0.00    -0.153 OA
ATOM      3  O   UNL     1     -27.935 -11.411  18.758  0.00  0.00    -0.153 OA
ENDROOT
BRANCH   1   7
ATOM      4  C   UNL     1     -31.074 -12.908  14.818  0.00  0.00    +0.033 A 
ATOM      5  C   UNL     1     -30.957 -11.698  15.520  0.00  0.00    +0.025 A 
ATOM      6  C   UNL     1     -30.224 -11.633  16.709  0.00  0.00    +0.030 A 
ATOM      7  C   UNL     1     -29.603 -12.782  17.217  0.00  0.00    +0.106 A 
ATOM      8  C   UNL     1     -29.735 -13.996  16.534  0.00  0.00    +0.030 A 
ATOM      9  C   UNL     1     -30.472 -14.064  15.348  0.00  0.00    +0.025 A 
BRANCH   4  12
ATOM     10  C   UNL     1     -33.219 -12.492  13.514  0.00  0.00    +0.217 C 
ATOM     11  O   UNL     1     -33.892 -12.243  14.550  0.00  0.00    -0.275 OA
ATOM     12  N   UNL     1     -31.860 -12.949  13.614  0.00  0.00    -0.286 N 
ATOM     13  H   UNL     1     -31.447 -13.417  12.775  0.00  0.00    +0.155 HD
BRANCH  10  15
ATOM     14  C   UNL     1     -34.793 -11.151  12.128  0.00  0.00    +0.013 C 
ATOM     15  C   UNL     1     -33.867 -12.362  12.169  0.00  0.00    +0.093 C 
ENDBRANCH  10  15
ENDBRANCH   4  12
ENDBRANCH   1   7
BRANCH   1  16
ATOM     16  N   UNL     1     -29.780 -12.834  20.072  0.00  0.00    -0.172 NA
ATOM     17  C   UNL     1     -29.072 -12.666  21.361  0.00  0.00    +0.137 C 
ATOM     18  C   UNL     1     -29.369 -11.319  22.044  0.00  0.00    +0.178 C 
ATOM     19  O   UNL     1     -29.439 -10.265  21.107  0.00  0.00    -0.369 OA
ATOM     20  C   UNL     1     -30.494 -10.440  20.167  0.00  0.00    +0.164 C 
ATOM     21  C   UNL     1     -30.922 -11.915  19.934  0.00  0.00    +0.146 C 
BRANCH  20  22
ATOM     22  C   UNL     1     -31.655  -9.519  20.496  0.00  0.00    -0.018 A 
ATOM     23  C   UNL     1     -31.648  -8.194  20.018  0.00  0.00    +0.007 A 
ATOM     24  C   UNL     1     -32.690  -7.319  20.333  0.00  0.00    +0.020 A 
ATOM     25  C   UNL     1     -33.749  -7.748  21.137  0.00  0.00    +0.041 A 
ATOM     26 CL   UNL     1     -35.062  -6.651  21.514  0.00  0.00    -0.084 Cl
ATOM     27  C   UNL     1     -33.761  -9.055  21.631  0.00  0.00    +0.020 A 
ATOM     28  C   UNL     1     -32.718  -9.935  21.323  0.00  0.00    +0.007 A 
ENDBRANCH  20  22
ENDBRANCH   1  16
TORSDOF 5
ENDMDL
MODEL 8
REMARK VINA RESULT:    -3.237      2.863      5.885
REMARK INTER + INTRA:          -4.848
REMARK INTER:                  -4.370
REMARK INTRA:                  -0.479
REMARK UNBOUND:                -0.665
REMARK  Name = 
REMARK  6 active torsions:
REMARK  status: ('A' for Active; 'I' for Inactive)
REMARK    1  A    between atoms: C_1  and  C_2
REMARK    2  A    between atoms: C_2  and  C_3
REMARK    3  A    between atoms: N_5  and  C_6
REMARK    4  A    between atoms: C_9  and  S_12
REMARK    5  A    between atoms: S_12  and  N_15
REMARK    6  A    between atoms: C_19  and  C_21
REMARK                            x       y       z     vdW  Elec       q    Type
REMARK                         _______ _______ _______ _____ _____    ______ ____
ROOT
ATOM      1  S   UNL     1     -32.475 -12.476  14.162  0.00  0.00    +0.061 S 
ATOM      2  O   UNL     1     -33.507 -12.835  13.128  0.00  0.00    -0.153 OA
ATOM      3  O   UNL     1     -31.312 -11.807  13.486  0.00  0.00    -0.153 OA
ENDROOT
BRANCH   1   7
ATOM      4  C   UNL     1     -34.294  -9.562  17.186  0.00  0.00    +0.033 A 
ATOM      5  C   UNL     1     -33.099  -9.243  16.524  0.00  0.00    +0.025 A 
ATOM      6  C   UNL     1     -32.541 -10.128  15.597  0.00  0.00    +0.030 A 
ATOM      7  C   UNL     1     -33.168 -11.351  15.324  0.00  0.00    +0.106 A 
ATOM      8  C   UNL     1     -34.348 -11.685  15.998  0.00  0.00    +0.030 A 
ATOM      9  C   UNL     1     -34.905 -10.803  16.930  0.00  0.00    +0.025 A 
BRANCH   4  12
ATOM     10  C   UNL     1     -34.233  -8.378  19.438  0.00  0.00    +0.217 C 
ATOM     11  O   UNL     1     -33.323  -9.124  19.891  0.00  0.00    -0.275 OA
ATOM     12  N   UNL     1     -34.827  -8.643  18.156  0.00  0.00    -0.286 N 
ATOM     13  H   UNL     1     -35.752  -8.199  17.955  0.00  0.00    +0.155 HD
BRANCH  10  15
ATOM     14  C   UNL     1     -34.880  -7.659  21.732  0.00  0.00    +0.013 C 
ATOM     15  C   UNL     1     -34.733  -7.239  20.273  0.00  0.00    +0.093 C 
ENDBRANCH  10  15
ENDBRANCH   4  12
ENDBRANCH   1   7
BRANCH   1  16
ATOM     16  N   UNL     1     -31.945 -13.917  15.004  0.00  0.00    -0.172 NA
ATOM     17  C   UNL     1     -30.829 -14.581  14.295  0.00  0.00    +0.137 C 
ATOM     18  C   UNL     1     -29.476 -14.423  15.012  0.00  0.00    +0.178 C 
ATOM     19  O   UNL     1     -29.325 -13.131  15.560  0.00  0.00    -0.369 OA
ATOM     20  C   UNL     1     -30.303 -12.843  16.554  0.00  0.00    +0.164 C 
ATOM     21  C   UNL     1     -31.629 -13.641  16.416  0.00  0.00    +0.146 C 
BRANCH  20  22
ATOM     22  C   UNL     1     -29.689 -12.926  17.940  0.00  0.00    -0.018 A 
ATOM     23  C   UNL     1     -28.302 -12.747  18.098  0.00  0.00    +0.007 A 
ATOM     24  C   UNL     1     -27.710 -12.849  19.360  0.00  0.00    +0.020 A 
ATOM     25  C   UNL     1     -28.492 -13.141  20.480  0.00  0.00    +0.041 A 
ATOM     26 CL   UNL     1     -27.747 -13.251  22.062  0.00  0.00    -0.084 Cl
ATOM     27  C   UNL     1     -29.868 -13.337  20.336  0.00  0.00    +0.020 A 
ATOM     28  C   UNL     1     -30.465 -13.241  19.074  0.00  0.00    +0.007 A 
ENDBRANCH  20  22
ENDBRANCH   1  16
TORSDOF 5
ENDMDL
