MODEL 1
REMARK VINA RESULT:    -3.657      0.000      0.000
REMARK INTER + INTRA:          -5.171
REMARK INTER:                  -4.513
REMARK INTRA:                  -0.659
REMARK UNBOUND:                -0.659
REMARK  Name = 
REMARK  6 active torsions:
REMARK  status: ('A' for Active; 'I' for Inactive)
REMARK    1  A    between atoms: C_1  and  C_2
REMARK    2  A    between atoms: C_2  and  C_3
REMARK    3  A    between atoms: C_3  and  C_4
REMARK    4  A    between atoms: C_3  and  N_6
REMARK    5  A    between atoms: C_4  and  C_5
REMARK    6  A    between atoms: C_10  and  N_14
REMARK                            x       y       z     vdW  Elec       q    Type
REMARK                         _______ _______ _______ _____ _____    ______ ____
ROOT
ATOM      1  N   UNL     1     -30.986 -11.170  17.971  0.00  0.00    -0.311 N 
ATOM      2  C   UNL     1     -29.694 -11.627  18.392  0.00  0.00    +0.217 A 
ATOM      3  N   UNL     1     -28.567 -10.978  18.000  0.00  0.00    -0.221 NA
ATOM      4  C   UNL     1     -27.340 -11.402  18.393  0.00  0.00    +0.150 A 
ATOM      5  C   UNL     1     -27.211 -12.519  19.228  0.00  0.00    +0.184 A 
ATOM      6  C   UNL     1     -28.391 -13.198  19.605  0.00  0.00    +0.152 A 
ATOM      7  N   UNL     1     -28.357 -14.405  20.372  0.00  0.00    -0.341 N 
ATOM      8  N   UNL     1     -29.595 -12.727  19.182  0.00  0.00    -0.198 NA
ATOM      9  H   UNL     1     -31.825 -11.690  18.316  0.00  0.00    +0.149 HD
ATOM     10  H   UNL     1     -29.251 -14.836  20.697  0.00  0.00    +0.144 HD
ATOM     11  H   UNL     1     -27.478 -14.945  20.522  0.00  0.00    +0.144 HD
ENDROOT
BRANCH   5  12
ATOM     12  N   UNL     1     -25.910 -12.917  19.691  0.00  0.00    +0.061 N 
ATOM     13  O   UNL     1     -25.676 -14.228  20.036  0.00  0.00    -0.126 OA
ATOM     14  O   UNL     1     -24.938 -12.141  19.581  0.00  0.00    -0.126 OA
ENDBRANCH   5  12
BRANCH   1  15
ATOM     15  C   UNL     1     -31.163  -9.991  17.113  0.00  0.00    +0.073 C 
BRANCH  15  17
ATOM     16  C   UNL     1     -32.840 -10.318  15.207  0.00  0.00    +0.006 C 
ATOM     17  C   UNL     1     -31.380 -10.444  15.643  0.00  0.00    +0.019 C 
ENDBRANCH  15  17
BRANCH  15  18
ATOM     18  C   UNL     1     -32.341  -9.143  17.645  0.00  0.00    +0.019 C 
ATOM     19  C   UNL     1     -32.048  -8.487  18.993  0.00  0.00    +0.006 C 
ENDBRANCH  15  18
ENDBRANCH   1  15
TORSDOF 4
ENDMDL
MODEL 2
REMARK VINA RESULT:    -3.580      2.616      3.552
REMARK INTER + INTRA:          -5.076
REMARK INTER:                  -4.452
REMARK INTRA:                  -0.624
REMARK UNBOUND:                -0.659
REMARK  Name = 
REMARK  6 active torsions:
REMARK  status: ('A' for Active; 'I' for Inactive)
REMARK    1  A    between atoms: C_1  and  C_2
REMARK    2  A    between atoms: C_2  and  C_3
REMARK    3  A    between atoms: C_3  and  C_4
REMARK    4  A    between atoms: C_3  and  N_6
REMARK    5  A    between atoms: C_4  and  C_5
REMARK    6  A    between atoms: C_10  and  N_14
REMARK                            x       y       z     vdW  Elec       q    Type
REMARK                         _______ _______ _______ _____ _____    ______ ____
ROOT
ATOM      1  N   UNL     1     -31.685 -12.949  14.877  0.00  0.00    -0.311 N 
ATOM      2  C   UNL     1     -30.904 -12.503  15.994  0.00  0.00    +0.217 A 
ATOM      3  N   UNL     1     -30.643 -11.182  16.175  0.00  0.00    -0.221 NA
ATOM      4  C   UNL     1     -29.906 -10.750  17.228  0.00  0.00    +0.150 A 
ATOM      5  C   UNL     1     -29.406 -11.665  18.165  0.00  0.00    +0.184 A 
ATOM      6  C   UNL     1     -29.664 -13.036  17.947  0.00  0.00    +0.152 A 
ATOM      7  N   UNL     1     -29.115 -14.053  18.791  0.00  0.00    -0.341 N 
ATOM      8  N   UNL     1     -30.411 -13.412  16.875  0.00  0.00    -0.198 NA
ATOM      9  H   UNL     1     -31.877 -13.973  14.793  0.00  0.00    +0.149 HD
ATOM     10  H   UNL     1     -29.390 -15.049  18.646  0.00  0.00    +0.144 HD
ATOM     11  H   UNL     1     -28.352 -13.856  19.474  0.00  0.00    +0.144 HD
ENDROOT
BRANCH   5  12
ATOM     12  N   UNL     1     -28.684 -11.187  19.312  0.00  0.00    +0.061 N 
ATOM     13  O   UNL     1     -29.333 -10.438  20.267  0.00  0.00    -0.126 OA
ATOM     14  O   UNL     1     -27.539 -11.618  19.561  0.00  0.00    -0.126 OA
ENDBRANCH   5  12
BRANCH   1  15
ATOM     15  C   UNL     1     -32.243 -12.020  13.886  0.00  0.00    +0.073 C 
BRANCH  15  17
ATOM     16  C   UNL     1     -33.338 -13.269  11.938  0.00  0.00    +0.006 C 
ATOM     17  C   UNL     1     -32.062 -12.608  12.460  0.00  0.00    +0.019 C 
ENDBRANCH  15  17
BRANCH  15  18
ATOM     18  C   UNL     1     -33.727 -11.744  14.221  0.00  0.00    +0.019 C 
ATOM     19  C   UNL     1     -34.015 -10.271  14.505  0.00  0.00    +0.006 C 
ENDBRANCH  15  18
ENDBRANCH   1  15
TORSDOF 4
ENDMDL
MODEL 3
REMARK VINA RESULT:    -3.498      3.534      4.546
REMARK INTER + INTRA:          -4.975
REMARK INTER:                  -4.323
REMARK INTRA:                  -0.652
REMARK UNBOUND:                -0.659
REMARK  Name = 
REMARK  6 active torsions:
REMARK  status: ('A' for Active; 'I' for Inactive)
REMARK    1  A    between atoms: C_1  and  C_2
REMARK    2  A    between atoms: C_2  and  C_3
REMARK    3  A    between atoms: C_3  and  C_4
REMARK    4  A    between atoms: C_3  and  N_6
REMARK    5  A    between atoms: C_4  and  C_5
REMARK    6  A    between atoms: C_10  and  N_14
REMARK                            x       y       z     vdW  Elec       q    Type
REMARK                         _______ _______ _______ _____ _____    ______ ____
ROOT
ATOM      1  N   UNL     1     -30.914 -14.174  15.369  0.00  0.00    -0.311 N 
ATOM      2  C   UNL     1     -30.625 -13.414  16.550  0.00  0.00    +0.217 A 
ATOM      3  N   UNL     1     -30.123 -12.155  16.459  0.00  0.00    -0.221 NA
ATOM      4  C   UNL     1     -29.847 -11.427  17.570  0.00  0.00    +0.150 A 
ATOM      5  C   UNL     1     -30.088 -11.961  18.843  0.00  0.00    +0.184 A 
ATOM      6  C   UNL     1     -30.584 -13.280  18.920  0.00  0.00    +0.152 A 
ATOM      7  N   UNL     1     -30.768 -13.948  20.172  0.00  0.00    -0.341 N 
ATOM      8  N   UNL     1     -30.844 -13.963  17.773  0.00  0.00    -0.198 NA
ATOM      9  H   UNL     1     -31.319 -15.130  15.490  0.00  0.00    +0.149 HD
ATOM     10  H   UNL     1     -31.209 -14.894  20.193  0.00  0.00    +0.144 HD
ATOM     11  H   UNL     1     -30.368 -13.581  21.062  0.00  0.00    +0.144 HD
ENDROOT
BRANCH   5  12
ATOM     12  N   UNL     1     -29.854 -11.154  20.009  0.00  0.00    +0.061 N 
ATOM     13  O   UNL     1     -29.574 -11.756  21.214  0.00  0.00    -0.126 OA
ATOM     14  O   UNL     1     -29.690  -9.921  19.901  0.00  0.00    -0.126 OA
ENDBRANCH   5  12
BRANCH   1  15
ATOM     15  C   UNL     1     -30.695 -13.642  14.018  0.00  0.00    +0.073 C 
BRANCH  15  17
ATOM     16  C   UNL     1     -28.532 -14.804  13.295  0.00  0.00    +0.006 C 
ATOM     17  C   UNL     1     -30.049 -14.737  13.124  0.00  0.00    +0.019 C 
ENDBRANCH  15  17
BRANCH  15  18
ATOM     18  C   UNL     1     -32.038 -13.135  13.443  0.00  0.00    +0.019 C 
ATOM     19  C   UNL     1     -32.228 -13.480  11.967  0.00  0.00    +0.006 C 
ENDBRANCH  15  18
ENDBRANCH   1  15
TORSDOF 4
ENDMDL
MODEL 4
REMARK VINA RESULT:    -3.461      3.832      5.846
REMARK INTER + INTRA:          -4.930
REMARK INTER:                  -4.602
REMARK INTRA:                  -0.328
REMARK UNBOUND:                -0.659
REMARK  Name = 
REMARK  6 active torsions:
REMARK  status: ('A' for Active; 'I' for Inactive)
REMARK    1  A    between atoms: C_1  and  C_2
REMARK    2  A    between atoms: C_2  and  C_3
REMARK    3  A    between atoms: C_3  and  C_4
REMARK    4  A    between atoms: C_3  and  N_6
REMARK    5  A    between atoms: C_4  and  C_5
REMARK    6  A    between atoms: C_10  and  N_14
REMARK                            x       y       z     vdW  Elec       q    Type
REMARK                         _______ _______ _______ _____ _____    ______ ____
ROOT
ATOM      1  N   UNL     1     -31.892 -11.997  14.118  0.00  0.00    -0.311 N 
ATOM      2  C   UNL     1     -31.616 -11.215  15.287  0.00  0.00    +0.217 A 
ATOM      3  N   UNL     1     -30.543 -11.496  16.072  0.00  0.00    -0.221 NA
ATOM      4  C   UNL     1     -30.273 -10.762  17.181  0.00  0.00    +0.150 A 
ATOM      5  C   UNL     1     -31.096  -9.684  17.533  0.00  0.00    +0.184 A 
ATOM      6  C   UNL     1     -32.222  -9.423  16.722  0.00  0.00    +0.152 A 
ATOM      7  N   UNL     1     -33.175  -8.409  17.053  0.00  0.00    -0.341 N 
ATOM      8  N   UNL     1     -32.443 -10.190  15.621  0.00  0.00    -0.198 NA
ATOM      9  H   UNL     1     -32.716 -11.729  13.533  0.00  0.00    +0.149 HD
ATOM     10  H   UNL     1     -33.952  -8.193  16.390  0.00  0.00    +0.144 HD
ATOM     11  H   UNL     1     -33.200  -7.954  17.991  0.00  0.00    +0.144 HD
ENDROOT
BRANCH   5  12
ATOM     12  N   UNL     1     -30.760  -8.875  18.672  0.00  0.00    +0.061 N 
ATOM     13  O   UNL     1     -31.689  -8.003  19.191  0.00  0.00    -0.126 OA
ATOM     14  O   UNL     1     -29.720  -9.104  19.324  0.00  0.00    -0.126 OA
ENDBRANCH   5  12
BRANCH   1  15
ATOM     15  C   UNL     1     -31.042 -13.121  13.704  0.00  0.00    +0.073 C 
BRANCH  15  17
ATOM     16  C   UNL     1     -29.716 -14.895  14.988  0.00  0.00    +0.006 C 
ATOM     17  C   UNL     1     -31.079 -14.231  14.790  0.00  0.00    +0.019 C 
ENDBRANCH  15  17
BRANCH  15  18
ATOM     18  C   UNL     1     -31.511 -13.637  12.323  0.00  0.00    +0.019 C 
ATOM     19  C   UNL     1     -32.963 -13.279  12.010  0.00  0.00    +0.006 C 
ENDBRANCH  15  18
ENDBRANCH   1  15
TORSDOF 4
ENDMDL
MODEL 5
REMARK VINA RESULT:    -3.446      3.596      4.693
REMARK INTER + INTRA:          -4.911
REMARK INTER:                  -4.427
REMARK INTRA:                  -0.483
REMARK UNBOUND:                -0.659
REMARK  Name = 
REMARK  6 active torsions:
REMARK  status: ('A' for Active; 'I' for Inactive)
REMARK    1  A    between atoms: C_1  and  C_2
REMARK    2  A    between atoms: C_2  and  C_3
REMARK    3  A    between atoms: C_3  and  C_4
REMARK    4  A    between atoms: C_3  and  N_6
REMARK    5  A    between atoms: C_4  and  C_5
REMARK    6  A    between atoms: C_10  and  N_14
REMARK                            x       y       z     vdW  Elec       q    Type
REMARK                         _______ _______ _______ _____ _____    ______ ____
ROOT
ATOM      1  N   UNL     1     -29.185 -14.012  15.230  0.00  0.00    -0.311 N 
ATOM      2  C   UNL     1     -29.340 -13.712  16.623  0.00  0.00    +0.217 A 
ATOM      3  N   UNL     1     -30.560 -13.783  17.216  0.00  0.00    -0.221 NA
ATOM      4  C   UNL     1     -30.718 -13.502  18.534  0.00  0.00    +0.150 A 
ATOM      5  C   UNL     1     -29.613 -13.143  19.318  0.00  0.00    +0.184 A 
ATOM      6  C   UNL     1     -28.357 -13.048  18.680  0.00  0.00    +0.152 A 
ATOM      7  N   UNL     1     -27.190 -12.593  19.370  0.00  0.00    -0.341 N 
ATOM      8  N   UNL     1     -28.258 -13.343  17.356  0.00  0.00    -0.198 NA
ATOM      9  H   UNL     1     -28.223 -13.964  14.824  0.00  0.00    +0.149 HD
ATOM     10  H   UNL     1     -26.264 -12.610  18.888  0.00  0.00    +0.144 HD
ATOM     11  H   UNL     1     -27.241 -12.129  20.303  0.00  0.00    +0.144 HD
ENDROOT
BRANCH   5  12
ATOM     12  N   UNL     1     -29.784 -12.913  20.726  0.00  0.00    +0.061 N 
ATOM     13  O   UNL     1     -30.992 -12.463  21.206  0.00  0.00    -0.126 OA
ATOM     14  O   UNL     1     -28.927 -13.318  21.539  0.00  0.00    -0.126 OA
ENDBRANCH   5  12
BRANCH   1  15
ATOM     15  C   UNL     1     -30.314 -14.412  14.380  0.00  0.00    +0.073 C 
BRANCH  15  17
ATOM     16  C   UNL     1     -31.727 -13.162  12.650  0.00  0.00    +0.006 C 
ATOM     17  C   UNL     1     -31.212 -13.178  14.089  0.00  0.00    +0.019 C 
ENDBRANCH  15  17
BRANCH  15  18
ATOM     18  C   UNL     1     -29.775 -15.062  13.085  0.00  0.00    +0.019 C 
ATOM     19  C   UNL     1     -28.250 -15.062  13.002  0.00  0.00    +0.006 C 
ENDBRANCH  15  18
ENDBRANCH   1  15
TORSDOF 4
ENDMDL
MODEL 6
REMARK VINA RESULT:    -3.310      2.000      2.553
REMARK INTER + INTRA:          -4.743
REMARK INTER:                  -4.100
REMARK INTRA:                  -0.643
REMARK UNBOUND:                -0.659
REMARK  Name = 
REMARK  6 active torsions:
REMARK  status: ('A' for Active; 'I' for Inactive)
REMARK    1  A    between atoms: C_1  and  C_2
REMARK    2  A    between atoms: C_2  and  C_3
REMARK    3  A    between atoms: C_3  and  C_4
REMARK    4  A    between atoms: C_3  and  N_6
REMARK    5  A    between atoms: C_4  and  C_5
REMARK    6  A    between atoms: C_10  and  N_14
REMARK                            x       y       z     vdW  Elec       q    Type
REMARK                         _______ _______ _______ _____ _____    ______ ____
ROOT
ATOM      1  N   UNL     1     -32.475 -11.206  19.959  0.00  0.00    -0.311 N 
ATOM      2  C   UNL     1     -31.092 -11.419  19.645  0.00  0.00    +0.217 A 
ATOM      3  N   UNL     1     -30.351 -10.434  19.075  0.00  0.00    -0.221 NA
ATOM      4  C   UNL     1     -29.042 -10.625  18.774  0.00  0.00    +0.150 A 
ATOM      5  C   UNL     1     -28.422 -11.848  19.060  0.00  0.00    +0.184 A 
ATOM      6  C   UNL     1     -29.213 -12.870  19.628  0.00  0.00    +0.152 A 
ATOM      7  N   UNL     1     -28.698 -14.184  19.864  0.00  0.00    -0.341 N 
ATOM      8  N   UNL     1     -30.521 -12.622  19.910  0.00  0.00    -0.198 NA
ATOM      9  H   UNL     1     -32.998 -11.987  20.417  0.00  0.00    +0.149 HD
ATOM     10  H   UNL     1     -29.289 -14.890  20.356  0.00  0.00    +0.144 HD
ATOM     11  H   UNL     1     -27.795 -14.508  19.457  0.00  0.00    +0.144 HD
ENDROOT
BRANCH   5  12
ATOM     12  N   UNL     1     -27.019 -12.013  18.798  0.00  0.00    +0.061 N 
ATOM     13  O   UNL     1     -26.308 -10.998  18.200  0.00  0.00    -0.126 OA
ATOM     14  O   UNL     1     -26.393 -12.973  19.295  0.00  0.00    -0.126 OA
ENDBRANCH   5  12
BRANCH   1  15
ATOM     15  C   UNL     1     -33.155  -9.932  19.694  0.00  0.00    +0.073 C 
BRANCH  15  17
ATOM     16  C   UNL     1     -33.294  -9.291  17.219  0.00  0.00    +0.006 C 
ATOM     17  C   UNL     1     -33.965 -10.037  18.372  0.00  0.00    +0.019 C 
ENDBRANCH  15  17
BRANCH  15  18
ATOM     18  C   UNL     1     -34.050  -9.568  20.901  0.00  0.00    +0.019 C 
ATOM     19  C   UNL     1     -34.117 -10.673  21.954  0.00  0.00    +0.006 C 
ENDBRANCH  15  18
ENDBRANCH   1  15
TORSDOF 4
ENDMDL
MODEL 7
REMARK VINA RESULT:    -3.286      4.865      6.257
REMARK INTER + INTRA:          -4.713
REMARK INTER:                  -4.049
REMARK INTRA:                  -0.664
REMARK UNBOUND:                -0.659
REMARK  Name = 
REMARK  6 active torsions:
REMARK  status: ('A' for Active; 'I' for Inactive)
REMARK    1  A    between atoms: C_1  and  C_2
REMARK    2  A    between atoms: C_2  and  C_3
REMARK    3  A    between atoms: C_3  and  C_4
REMARK    4  A    between atoms: C_3  and  N_6
REMARK    5  A    between atoms: C_4  and  C_5
REMARK    6  A    between atoms: C_10  and  N_14
REMARK                            x       y       z     vdW  Elec       q    Type
REMARK                         _______ _______ _______ _____ _____    ______ ____
ROOT
ATOM      1  N   UNL     1     -31.632 -11.991  13.919  0.00  0.00    -0.311 N 
ATOM      2  C   UNL     1     -32.046 -11.677  15.255  0.00  0.00    +0.217 A 
ATOM      3  N   UNL     1     -32.545 -12.642  16.071  0.00  0.00    -0.221 NA
ATOM      4  C   UNL     1     -32.939 -12.355  17.337  0.00  0.00    +0.150 A 
ATOM      5  C   UNL     1     -32.827 -11.050  17.835  0.00  0.00    +0.184 A 
ATOM      6  C   UNL     1     -32.332 -10.055  16.965  0.00  0.00    +0.152 A 
ATOM      7  N   UNL     1     -32.273  -8.677  17.346  0.00  0.00    -0.341 N 
ATOM      8  N   UNL     1     -31.950 -10.400  15.705  0.00  0.00    -0.198 NA
ATOM      9  H   UNL     1     -31.235 -11.220  13.336  0.00  0.00    +0.149 HD
ATOM     10  H   UNL     1     -31.830  -7.982  16.705  0.00  0.00    +0.144 HD
ATOM     11  H   UNL     1     -32.764  -8.313  18.190  0.00  0.00    +0.144 HD
ENDROOT
BRANCH   5  12
ATOM     12  N   UNL     1     -33.185 -10.775  19.199  0.00  0.00    +0.061 N 
ATOM     13  O   UNL     1     -33.870  -9.623  19.509  0.00  0.00    -0.126 OA
ATOM     14  O   UNL     1     -33.074 -11.662  20.071  0.00  0.00    -0.126 OA
ENDBRANCH   5  12
BRANCH   1  15
ATOM     15  C   UNL     1     -31.714 -13.350  13.368  0.00  0.00    +0.073 C 
BRANCH  15  17
ATOM     16  C   UNL     1     -33.746 -12.736  11.938  0.00  0.00    +0.006 C 
ATOM     17  C   UNL     1     -32.325 -13.299  11.941  0.00  0.00    +0.019 C 
ENDBRANCH  15  17
BRANCH  15  18
ATOM     18  C   UNL     1     -30.308 -13.994  13.380  0.00  0.00    +0.019 C 
ATOM     19  C   UNL     1     -30.082 -14.919  14.574  0.00  0.00    +0.006 C 
ENDBRANCH  15  18
ENDBRANCH   1  15
TORSDOF 4
ENDMDL
MODEL 8
REMARK VINA RESULT:    -3.226      1.155      2.548
REMARK INTER + INTRA:          -4.639
REMARK INTER:                  -3.995
REMARK INTRA:                  -0.644
REMARK UNBOUND:                -0.659
REMARK  Name = 
REMARK  6 active torsions:
REMARK  status: ('A' for Active; 'I' for Inactive)
REMARK    1  A    between atoms: C_1  and  C_2
REMARK    2  A    between atoms: C_2  and  C_3
REMARK    3  A    between atoms: C_3  and  C_4
REMARK    4  A    between atoms: C_3  and  N_6
REMARK    5  A    between atoms: C_4  and  C_5
REMARK    6  A    between atoms: C_10  and  N_14
REMARK                            x       y       z     vdW  Elec       q    Type
REMARK                         _______ _______ _______ _____ _____    ______ ____
ROOT
ATOM      1  N   UNL     1     -30.051  -9.943  17.389  0.00  0.00    -0.311 N 
ATOM      2  C   UNL     1     -29.280 -10.901  18.126  0.00  0.00    +0.217 A 
ATOM      3  N   UNL     1     -29.890 -11.835  18.901  0.00  0.00    -0.221 NA
ATOM      4  C   UNL     1     -29.169 -12.746  19.601  0.00  0.00    +0.150 A 
ATOM      5  C   UNL     1     -27.770 -12.748  19.529  0.00  0.00    +0.184 A 
ATOM      6  C   UNL     1     -27.151 -11.753  18.741  0.00  0.00    +0.152 A 
ATOM      7  N   UNL     1     -25.728 -11.610  18.683  0.00  0.00    -0.341 N 
ATOM      8  N   UNL     1     -27.924 -10.866  18.058  0.00  0.00    -0.198 NA
ATOM      9  H   UNL     1     -29.537  -9.257  16.791  0.00  0.00    +0.149 HD
ATOM     10  H   UNL     1     -25.305 -10.914  18.030  0.00  0.00    +0.144 HD
ATOM     11  H   UNL     1     -25.094 -12.091  19.356  0.00  0.00    +0.144 HD
ENDROOT
BRANCH   5  12
ATOM     12  N   UNL     1     -27.023 -13.760  20.223  0.00  0.00    +0.061 N 
ATOM     13  O   UNL     1     -27.620 -14.484  21.229  0.00  0.00    -0.126 OA
ATOM     14  O   UNL     1     -25.915 -14.137  19.786  0.00  0.00    -0.126 OA
ENDBRANCH   5  12
BRANCH   1  15
ATOM     15  C   UNL     1     -31.519  -9.922  17.423  0.00  0.00    +0.073 C 
BRANCH  15  17
ATOM     16  C   UNL     1     -33.485  -8.472  18.188  0.00  0.00    +0.006 C 
ATOM     17  C   UNL     1     -32.004  -8.798  18.379  0.00  0.00    +0.019 C 
ENDBRANCH  15  17
BRANCH  15  18
ATOM     18  C   UNL     1     -32.062  -9.742  15.986  0.00  0.00    +0.019 C 
ATOM     19  C   UNL     1     -31.771 -10.937  15.079  0.00  0.00    +0.006 C 
ENDBRANCH  15  18
ENDBRANCH   1  15
TORSDOF 4
ENDMDL
MODEL 9
REMARK VINA RESULT:    -3.089      1.907      2.253
REMARK INTER + INTRA:          -4.471
REMARK INTER:                  -3.771
REMARK INTRA:                  -0.700
REMARK UNBOUND:                -0.659
REMARK  Name = 
REMARK  6 active torsions:
REMARK  status: ('A' for Active; 'I' for Inactive)
REMARK    1  A    between atoms: C_1  and  C_2
REMARK    2  A    between atoms: C_2  and  C_3
REMARK    3  A    between atoms: C_3  and  C_4
REMARK    4  A    between atoms: C_3  and  N_6
REMARK    5  A    between atoms: C_4  and  C_5
REMARK    6  A    between atoms: C_10  and  N_14
REMARK                            x       y       z     vdW  Elec       q    Type
REMARK                         _______ _______ _______ _____ _____    ______ ____
ROOT
ATOM      1  N   UNL     1     -31.217 -12.918  20.209  0.00  0.00    -0.311 N 
ATOM      2  C   UNL     1     -29.788 -13.025  20.178  0.00  0.00    +0.217 A 
ATOM      3  N   UNL     1     -29.056 -12.295  19.295  0.00  0.00    -0.221 NA
ATOM      4  C   UNL     1     -27.704 -12.390  19.258  0.00  0.00    +0.150 A 
ATOM      5  C   UNL     1     -27.029 -13.240  20.144  0.00  0.00    +0.184 A 
ATOM      6  C   UNL     1     -27.806 -14.012  21.035  0.00  0.00    +0.152 A 
ATOM      7  N   UNL     1     -27.218 -14.980  21.908  0.00  0.00    -0.341 N 
ATOM      8  N   UNL     1     -29.159 -13.875  21.030  0.00  0.00    -0.198 NA
ATOM      9  H   UNL     1     -31.735 -13.483  20.920  0.00  0.00    +0.149 HD
ATOM     10  H   UNL     1     -27.814 -15.476  22.607  0.00  0.00    +0.144 HD
ATOM     11  H   UNL     1     -26.233 -15.304  21.796  0.00  0.00    +0.144 HD
ENDROOT
BRANCH   5  12
ATOM     12  N   UNL     1     -25.593 -13.280  20.138  0.00  0.00    +0.061 N 
ATOM     13  O   UNL     1     -24.938 -14.452  20.439  0.00  0.00    -0.126 OA
ATOM     14  O   UNL     1     -24.937 -12.331  19.657  0.00  0.00    -0.126 OA
ENDBRANCH   5  12
BRANCH   1  15
ATOM     15  C   UNL     1     -31.959 -12.022  19.311  0.00  0.00    +0.073 C 
BRANCH  15  17
ATOM     16  C   UNL     1     -31.765 -12.327  16.777  0.00  0.00    +0.006 C 
ATOM     17  C   UNL     1     -32.435 -12.813  18.062  0.00  0.00    +0.019 C 
ENDBRANCH  15  17
BRANCH  15  18
ATOM     18  C   UNL     1     -33.136 -11.383  20.084  0.00  0.00    +0.019 C 
ATOM     19  C   UNL     1     -32.747 -10.103  20.821  0.00  0.00    +0.006 C 
ENDBRANCH  15  18
ENDBRANCH   1  15
TORSDOF 4
ENDMDL
