MODEL 1
REMARK VINA RESULT:    -4.948      0.000      0.000
REMARK INTER + INTRA:          -6.436
REMARK INTER:                  -6.105
REMARK INTRA:                  -0.331
REMARK UNBOUND:                -0.331
REMARK  Name = 
REMARK  4 active torsions:
REMARK  status: ('A' for Active; 'I' for Inactive)
REMARK    1  A    between atoms: C_2  and  C_3
REMARK    2  A    between atoms: N_13  and  C_14
REMARK    3  A    between atoms: C_14  and  C_15
REMARK    4  A    between atoms: C_19  and  N_21
REMARK                            x       y       z     vdW  Elec       q    Type
REMARK                         _______ _______ _______ _____ _____    ______ ____
ROOT
ATOM      1  C   UNL     1     -27.275 -13.089  20.139  0.00  0.00    +0.052 A 
ATOM      2  C   UNL     1     -28.434 -13.615  20.727  0.00  0.00    +0.021 A 
ATOM      3  C   UNL     1     -29.695 -13.195  20.294  0.00  0.00    +0.029 A 
ATOM      4  C   UNL     1     -29.806 -12.246  19.273  0.00  0.00    +0.073 A 
ATOM      5  N   UNL     1     -31.032 -11.835  18.852  0.00  0.00    -0.232 NA
ATOM      6  C   UNL     1     -31.190 -10.912  17.863  0.00  0.00    +0.120 A 
ATOM      7  C   UNL     1     -30.052 -10.366  17.244  0.00  0.00    +0.044 A 
ATOM      8  C   UNL     1     -28.779 -10.767  17.656  0.00  0.00    +0.013 A 
ATOM      9  C   UNL     1     -28.643 -11.714  18.678  0.00  0.00    +0.002 A 
ATOM     10  C   UNL     1     -27.379 -12.138  19.115  0.00  0.00    +0.029 A 
ATOM     11  N   UNL     1     -32.523 -10.530  17.481  0.00  0.00    -0.325 N 
ATOM     12  H   UNL     1     -33.322 -11.043  17.917  0.00  0.00    +0.148 HD
ENDROOT
BRANCH   1  14
ATOM     13  N   UNL     1     -24.938 -13.876  20.949  0.00  0.00    -0.191 NA
ATOM     14  C   UNL     1     -25.979 -13.525  20.588  0.00  0.00    +0.099 C 
ENDBRANCH   1  14
BRANCH  11  15
ATOM     15  C   UNL     1     -32.845  -9.433  16.566  0.00  0.00    +0.138 C 
BRANCH  15  16
ATOM     16  C   UNL     1     -33.481  -9.959  15.307  0.00  0.00    -0.028 A 
ATOM     17  C   UNL     1     -34.480  -9.221  14.651  0.00  0.00    +0.005 A 
ATOM     18  C   UNL     1     -35.062  -9.712  13.482  0.00  0.00    +0.003 A 
ATOM     19  C   UNL     1     -34.650 -10.935  12.949  0.00  0.00    +0.033 A 
ATOM     20  C   UNL     1     -33.643 -11.684  13.581  0.00  0.00    +0.127 A 
ATOM     21  C   UNL     1     -33.060 -11.183  14.762  0.00  0.00    +0.038 A 
BRANCH  20  22
ATOM     22  N   UNL     1     -33.216 -12.942  13.029  0.00  0.00    +0.056 N 
ATOM     23  O   UNL     1     -33.934 -13.542  12.019  0.00  0.00    -0.126 OA
ATOM     24  O   UNL     1     -32.191 -13.512  13.456  0.00  0.00    -0.126 OA
ENDBRANCH  20  22
ENDBRANCH  15  16
ENDBRANCH  11  15
TORSDOF 4
ENDMDL
MODEL 2
REMARK VINA RESULT:    -4.323      4.557      6.278
REMARK INTER + INTRA:          -5.665
REMARK INTER:                  -5.368
REMARK INTRA:                  -0.297
REMARK UNBOUND:                -0.331
REMARK  Name = 
REMARK  4 active torsions:
REMARK  status: ('A' for Active; 'I' for Inactive)
REMARK    1  A    between atoms: C_2  and  C_3
REMARK    2  A    between atoms: N_13  and  C_14
REMARK    3  A    between atoms: C_14  and  C_15
REMARK    4  A    between atoms: C_19  and  N_21
REMARK                            x       y       z     vdW  Elec       q    Type
REMARK                         _______ _______ _______ _____ _____    ______ ____
ROOT
ATOM      1  C   UNL     1     -29.934 -14.091  13.881  0.00  0.00    +0.052 A 
ATOM      2  C   UNL     1     -29.780 -14.592  15.180  0.00  0.00    +0.021 A 
ATOM      3  C   UNL     1     -30.543 -14.073  16.231  0.00  0.00    +0.029 A 
ATOM      4  C   UNL     1     -31.464 -13.050  15.988  0.00  0.00    +0.073 A 
ATOM      5  N   UNL     1     -32.206 -12.542  17.008  0.00  0.00    -0.232 NA
ATOM      6  C   UNL     1     -33.114 -11.543  16.821  0.00  0.00    +0.120 A 
ATOM      7  C   UNL     1     -33.303 -11.019  15.530  0.00  0.00    +0.044 A 
ATOM      8  C   UNL     1     -32.554 -11.519  14.463  0.00  0.00    +0.013 A 
ATOM      9  C   UNL     1     -31.624 -12.542  14.681  0.00  0.00    +0.002 A 
ATOM     10  C   UNL     1     -30.856 -13.066  13.630  0.00  0.00    +0.029 A 
ATOM     11  N   UNL     1     -33.855 -11.062  17.956  0.00  0.00    -0.325 N 
ATOM     12  H   UNL     1     -33.731 -11.560  18.867  0.00  0.00    +0.148 HD
ENDROOT
BRANCH   1  14
ATOM     13  N   UNL     1     -28.513 -15.062  11.938  0.00  0.00    -0.191 NA
ATOM     14  C   UNL     1     -29.146 -14.630  12.803  0.00  0.00    +0.099 C 
ENDBRANCH   1  14
BRANCH  11  15
ATOM     15  C   UNL     1     -34.727  -9.887  17.943  0.00  0.00    +0.138 C 
BRANCH  15  16
ATOM     16  C   UNL     1     -34.025  -8.695  18.538  0.00  0.00    -0.028 A 
ATOM     17  C   UNL     1     -34.697  -7.471  18.685  0.00  0.00    +0.005 A 
ATOM     18  C   UNL     1     -34.042  -6.372  19.241  0.00  0.00    +0.003 A 
ATOM     19  C   UNL     1     -32.716  -6.483  19.665  0.00  0.00    +0.033 A 
ATOM     20  C   UNL     1     -32.028  -7.701  19.539  0.00  0.00    +0.127 A 
ATOM     21  C   UNL     1     -32.695  -8.807  18.976  0.00  0.00    +0.038 A 
BRANCH  20  22
ATOM     22  N   UNL     1     -30.662  -7.814  19.980  0.00  0.00    +0.056 N 
ATOM     23  O   UNL     1     -29.961  -8.983  19.790  0.00  0.00    -0.126 OA
ATOM     24  O   UNL     1     -30.092  -6.857  20.544  0.00  0.00    -0.126 OA
ENDBRANCH  20  22
ENDBRANCH  15  16
ENDBRANCH  11  15
TORSDOF 4
ENDMDL
MODEL 3
REMARK VINA RESULT:    -3.810      3.394      5.437
REMARK INTER + INTRA:          -5.031
REMARK INTER:                  -4.646
REMARK INTRA:                  -0.386
REMARK UNBOUND:                -0.331
REMARK  Name = 
REMARK  4 active torsions:
REMARK  status: ('A' for Active; 'I' for Inactive)
REMARK    1  A    between atoms: C_2  and  C_3
REMARK    2  A    between atoms: N_13  and  C_14
REMARK    3  A    between atoms: C_14  and  C_15
REMARK    4  A    between atoms: C_19  and  N_21
REMARK                            x       y       z     vdW  Elec       q    Type
REMARK                         _______ _______ _______ _____ _____    ______ ____
ROOT
ATOM      1  C   UNL     1     -32.090  -7.508  19.910  0.00  0.00    +0.052 A 
ATOM      2  C   UNL     1     -33.315  -7.945  19.387  0.00  0.00    +0.021 A 
ATOM      3  C   UNL     1     -33.413  -9.200  18.779  0.00  0.00    +0.029 A 
ATOM      4  C   UNL     1     -32.288 -10.025  18.689  0.00  0.00    +0.073 A 
ATOM      5  N   UNL     1     -32.380 -11.246  18.096  0.00  0.00    -0.232 NA
ATOM      6  C   UNL     1     -31.312 -12.083  17.983  0.00  0.00    +0.120 A 
ATOM      7  C   UNL     1     -30.068 -11.683  18.502  0.00  0.00    +0.044 A 
ATOM      8  C   UNL     1     -29.941 -10.435  19.115  0.00  0.00    +0.013 A 
ATOM      9  C   UNL     1     -31.052  -9.590  19.215  0.00  0.00    +0.002 A 
ATOM     10  C   UNL     1     -30.959  -8.330  19.824  0.00  0.00    +0.029 A 
ATOM     11  N   UNL     1     -31.497 -13.355  17.338  0.00  0.00    -0.325 N 
ATOM     12  H   UNL     1     -32.467 -13.625  17.060  0.00  0.00    +0.148 HD
ENDROOT
BRANCH   1  14
ATOM     13  N   UNL     1     -31.919  -5.176  21.038  0.00  0.00    -0.191 NA
ATOM     14  C   UNL     1     -31.995  -6.215  20.536  0.00  0.00    +0.099 C 
ENDBRANCH   1  14
BRANCH  11  15
ATOM     15  C   UNL     1     -30.414 -14.276  16.990  0.00  0.00    +0.138 C 
BRANCH  15  16
ATOM     16  C   UNL     1     -30.195 -14.302  15.500  0.00  0.00    -0.028 A 
ATOM     17  C   UNL     1     -29.036 -14.882  14.960  0.00  0.00    +0.005 A 
ATOM     18  C   UNL     1     -28.841 -14.907  13.578  0.00  0.00    +0.003 A 
ATOM     19  C   UNL     1     -29.801 -14.364  12.722  0.00  0.00    +0.033 A 
ATOM     20  C   UNL     1     -30.974 -13.790  13.240  0.00  0.00    +0.127 A 
ATOM     21  C   UNL     1     -31.164 -13.768  14.635  0.00  0.00    +0.038 A 
BRANCH  20  22
ATOM     22  N   UNL     1     -31.965 -13.235  12.355  0.00  0.00    +0.056 N 
ATOM     23  O   UNL     1     -33.033 -13.994  11.938  0.00  0.00    -0.126 OA
ATOM     24  O   UNL     1     -31.870 -12.057  11.950  0.00  0.00    -0.126 OA
ENDBRANCH  20  22
ENDBRANCH  15  16
ENDBRANCH  11  15
TORSDOF 4
ENDMDL
MODEL 4
REMARK VINA RESULT:    -3.697      3.085      8.136
REMARK INTER + INTRA:          -4.893
REMARK INTER:                  -4.490
REMARK INTRA:                  -0.402
REMARK UNBOUND:                -0.331
REMARK  Name = 
REMARK  4 active torsions:
REMARK  status: ('A' for Active; 'I' for Inactive)
REMARK    1  A    between atoms: C_2  and  C_3
REMARK    2  A    between atoms: N_13  and  C_14
REMARK    3  A    between atoms: C_14  and  C_15
REMARK    4  A    between atoms: C_19  and  N_21
REMARK                            x       y       z     vdW  Elec       q    Type
REMARK                         _______ _______ _______ _____ _____    ______ ____
ROOT
ATOM      1  C   UNL     1     -34.130 -10.129  14.872  0.00  0.00    +0.052 A 
ATOM      2  C   UNL     1     -34.316 -11.518  14.863  0.00  0.00    +0.021 A 
ATOM      3  C   UNL     1     -33.817 -12.302  15.908  0.00  0.00    +0.029 A 
ATOM      4  C   UNL     1     -33.129 -11.702  16.967  0.00  0.00    +0.073 A 
ATOM      5  N   UNL     1     -32.640 -12.462  17.983  0.00  0.00    -0.232 NA
ATOM      6  C   UNL     1     -31.961 -11.924  19.034  0.00  0.00    +0.120 A 
ATOM      7  C   UNL     1     -31.761 -10.533  19.083  0.00  0.00    +0.044 A 
ATOM      8  C   UNL     1     -32.249  -9.726  18.053  0.00  0.00    +0.013 A 
ATOM      9  C   UNL     1     -32.939 -10.303  16.981  0.00  0.00    +0.002 A 
ATOM     10  C   UNL     1     -33.442  -9.521  15.931  0.00  0.00    +0.029 A 
ATOM     11  N   UNL     1     -31.476 -12.802  20.065  0.00  0.00    -0.325 N 
ATOM     12  H   UNL     1     -31.741 -13.811  20.012  0.00  0.00    +0.148 HD
ENDROOT
BRANCH   1  14
ATOM     13  N   UNL     1     -35.062  -8.683  12.928  0.00  0.00    -0.191 NA
ATOM     14  C   UNL     1     -34.647  -9.327  13.794  0.00  0.00    +0.099 C 
ENDBRANCH   1  14
BRANCH  11  15
ATOM     15  C   UNL     1     -30.587 -12.393  21.155  0.00  0.00    +0.138 C 
BRANCH  15  16
ATOM     16  C   UNL     1     -29.176 -12.851  20.891  0.00  0.00    -0.028 A 
ATOM     17  C   UNL     1     -28.682 -14.019  21.494  0.00  0.00    +0.005 A 
ATOM     18  C   UNL     1     -27.376 -14.441  21.242  0.00  0.00    +0.003 A 
ATOM     19  C   UNL     1     -26.554 -13.711  20.381  0.00  0.00    +0.033 A 
ATOM     20  C   UNL     1     -27.032 -12.546  19.756  0.00  0.00    +0.127 A 
ATOM     21  C   UNL     1     -28.351 -12.126  20.015  0.00  0.00    +0.038 A 
BRANCH  20  22
ATOM     22  N   UNL     1     -26.185 -11.798  18.866  0.00  0.00    +0.056 N 
ATOM     23  O   UNL     1     -26.730 -11.037  17.857  0.00  0.00    -0.126 OA
ATOM     24  O   UNL     1     -24.943 -11.827  18.991  0.00  0.00    -0.126 OA
ENDBRANCH  20  22
ENDBRANCH  15  16
ENDBRANCH  11  15
TORSDOF 4
ENDMDL
MODEL 5
REMARK VINA RESULT:    -3.594      4.300      6.450
REMARK INTER + INTRA:          -4.765
REMARK INTER:                  -4.331
REMARK INTRA:                  -0.434
REMARK UNBOUND:                -0.331
REMARK  Name = 
REMARK  4 active torsions:
REMARK  status: ('A' for Active; 'I' for Inactive)
REMARK    1  A    between atoms: C_2  and  C_3
REMARK    2  A    between atoms: N_13  and  C_14
REMARK    3  A    between atoms: C_14  and  C_15
REMARK    4  A    between atoms: C_19  and  N_21
REMARK                            x       y       z     vdW  Elec       q    Type
REMARK                         _______ _______ _______ _____ _____    ______ ____
ROOT
ATOM      1  C   UNL     1     -30.272 -14.245  14.394  0.00  0.00    +0.052 A 
ATOM      2  C   UNL     1     -29.249 -14.487  15.320  0.00  0.00    +0.021 A 
ATOM      3  C   UNL     1     -29.382 -14.059  16.644  0.00  0.00    +0.029 A 
ATOM      4  C   UNL     1     -30.538 -13.384  17.050  0.00  0.00    +0.073 A 
ATOM      5  N   UNL     1     -30.669 -12.964  18.337  0.00  0.00    -0.232 NA
ATOM      6  C   UNL     1     -31.774 -12.301  18.777  0.00  0.00    +0.120 A 
ATOM      7  C   UNL     1     -32.826 -12.046  17.879  0.00  0.00    +0.044 A 
ATOM      8  C   UNL     1     -32.720 -12.462  16.550  0.00  0.00    +0.013 A 
ATOM      9  C   UNL     1     -31.571 -13.138  16.121  0.00  0.00    +0.002 A 
ATOM     10  C   UNL     1     -31.433 -13.570  14.793  0.00  0.00    +0.029 A 
ATOM     11  N   UNL     1     -31.830 -11.890  20.154  0.00  0.00    -0.325 N 
ATOM     12  H   UNL     1     -31.056 -12.195  20.786  0.00  0.00    +0.148 HD
ENDROOT
BRANCH   1  14
ATOM     13  N   UNL     1     -30.015 -15.046  11.938  0.00  0.00    -0.191 NA
ATOM     14  C   UNL     1     -30.129 -14.689  13.032  0.00  0.00    +0.099 C 
ENDBRANCH   1  14
BRANCH  11  15
ATOM     15  C   UNL     1     -32.865 -11.024  20.723  0.00  0.00    +0.138 C 
BRANCH  15  16
ATOM     16  C   UNL     1     -32.536  -9.574  20.483  0.00  0.00    -0.028 A 
ATOM     17  C   UNL     1     -31.341  -9.024  20.971  0.00  0.00    +0.005 A 
ATOM     18  C   UNL     1     -31.039  -7.681  20.741  0.00  0.00    +0.003 A 
ATOM     19  C   UNL     1     -31.921  -6.876  20.016  0.00  0.00    +0.033 A 
ATOM     20  C   UNL     1     -33.117  -7.409  19.507  0.00  0.00    +0.127 A 
ATOM     21  C   UNL     1     -33.415  -8.765  19.743  0.00  0.00    +0.038 A 
BRANCH  20  22
ATOM     22  N   UNL     1     -34.022  -6.578  18.757  0.00  0.00    +0.056 N 
ATOM     23  O   UNL     1     -35.062  -7.138  18.051  0.00  0.00    -0.126 OA
ATOM     24  O   UNL     1     -33.878  -5.338  18.730  0.00  0.00    -0.126 OA
ENDBRANCH  20  22
ENDBRANCH  15  16
ENDBRANCH  11  15
TORSDOF 4
ENDMDL
MODEL 6
REMARK VINA RESULT:    -3.552      3.810      5.367
REMARK INTER + INTRA:          -4.713
REMARK INTER:                  -4.307
REMARK INTRA:                  -0.406
REMARK UNBOUND:                -0.331
REMARK  Name = 
REMARK  4 active torsions:
REMARK  status: ('A' for Active; 'I' for Inactive)
REMARK    1  A    between atoms: C_2  and  C_3
REMARK    2  A    between atoms: N_13  and  C_14
REMARK    3  A    between atoms: C_14  and  C_15
REMARK    4  A    between atoms: C_19  and  N_21
REMARK                            x       y       z     vdW  Elec       q    Type
REMARK                         _______ _______ _______ _____ _____    ______ ____
ROOT
ATOM      1  C   UNL     1     -31.317  -6.941  20.563  0.00  0.00    +0.052 A 
ATOM      2  C   UNL     1     -32.480  -6.837  19.788  0.00  0.00    +0.021 A 
ATOM      3  C   UNL     1     -32.890  -7.906  18.986  0.00  0.00    +0.029 A 
ATOM      4  C   UNL     1     -32.141  -9.086  18.955  0.00  0.00    +0.073 A 
ATOM      5  N   UNL     1     -32.536 -10.127  18.174  0.00  0.00    -0.232 NA
ATOM      6  C   UNL     1     -31.838 -11.295  18.109  0.00  0.00    +0.120 A 
ATOM      7  C   UNL     1     -30.670 -11.441  18.878  0.00  0.00    +0.044 A 
ATOM      8  C   UNL     1     -30.236 -10.389  19.687  0.00  0.00    +0.013 A 
ATOM      9  C   UNL     1     -30.969  -9.197  19.734  0.00  0.00    +0.002 A 
ATOM     10  C   UNL     1     -30.561  -8.121  20.537  0.00  0.00    +0.029 A 
ATOM     11  N   UNL     1     -32.326 -12.345  17.255  0.00  0.00    -0.325 N 
ATOM     12  H   UNL     1     -33.248 -12.203  16.785  0.00  0.00    +0.148 HD
ENDROOT
BRANCH   1  14
ATOM     13  N   UNL     1     -30.564  -4.949  22.048  0.00  0.00    -0.191 NA
ATOM     14  C   UNL     1     -30.899  -5.836  21.387  0.00  0.00    +0.099 C 
ENDBRANCH   1  14
BRANCH  11  15
ATOM     15  C   UNL     1     -31.595 -13.576  16.950  0.00  0.00    +0.138 C 
BRANCH  15  16
ATOM     16  C   UNL     1     -31.259 -13.646  15.483  0.00  0.00    -0.028 A 
ATOM     17  C   UNL     1     -32.164 -13.169  14.522  0.00  0.00    +0.005 A 
ATOM     18  C   UNL     1     -31.845 -13.232  13.164  0.00  0.00    +0.003 A 
ATOM     19  C   UNL     1     -30.621 -13.762  12.753  0.00  0.00    +0.033 A 
ATOM     20  C   UNL     1     -29.694 -14.233  13.699  0.00  0.00    +0.127 A 
ATOM     21  C   UNL     1     -30.023 -14.167  15.067  0.00  0.00    +0.038 A 
BRANCH  20  22
ATOM     22  N   UNL     1     -28.431 -14.775  13.273  0.00  0.00    +0.056 N 
ATOM     23  O   UNL     1     -28.176 -14.988  11.938  0.00  0.00    -0.126 OA
ATOM     24  O   UNL     1     -27.546 -15.062  14.106  0.00  0.00    -0.126 OA
ENDBRANCH  20  22
ENDBRANCH  15  16
ENDBRANCH  11  15
TORSDOF 4
ENDMDL
MODEL 7
REMARK VINA RESULT:    -3.463      4.854      6.671
REMARK INTER + INTRA:          -4.604
REMARK INTER:                  -4.199
REMARK INTRA:                  -0.405
REMARK UNBOUND:                -0.331
REMARK  Name = 
REMARK  4 active torsions:
REMARK  status: ('A' for Active; 'I' for Inactive)
REMARK    1  A    between atoms: C_2  and  C_3
REMARK    2  A    between atoms: N_13  and  C_14
REMARK    3  A    between atoms: C_14  and  C_15
REMARK    4  A    between atoms: C_19  and  N_21
REMARK                            x       y       z     vdW  Elec       q    Type
REMARK                         _______ _______ _______ _____ _____    ______ ____
ROOT
ATOM      1  C   UNL     1     -30.104 -14.226  14.540  0.00  0.00    +0.052 A 
ATOM      2  C   UNL     1     -29.133 -14.403  15.535  0.00  0.00    +0.021 A 
ATOM      3  C   UNL     1     -29.371 -13.955  16.838  0.00  0.00    +0.029 A 
ATOM      4  C   UNL     1     -30.580 -13.326  17.153  0.00  0.00    +0.073 A 
ATOM      5  N   UNL     1     -30.812 -12.887  18.419  0.00  0.00    -0.232 NA
ATOM      6  C   UNL     1     -31.972 -12.268  18.773  0.00  0.00    +0.120 A 
ATOM      7  C   UNL     1     -32.974 -12.078  17.804  0.00  0.00    +0.044 A 
ATOM      8  C   UNL     1     -32.763 -12.516  16.495  0.00  0.00    +0.013 A 
ATOM      9  C   UNL     1     -31.561 -13.146  16.155  0.00  0.00    +0.002 A 
ATOM     10  C   UNL     1     -31.318 -13.598  14.849  0.00  0.00    +0.029 A 
ATOM     11  N   UNL     1     -32.135 -11.832  20.134  0.00  0.00    -0.325 N 
ATOM     12  H   UNL     1     -31.391 -12.088  20.821  0.00  0.00    +0.148 HD
ENDROOT
BRANCH   1  14
ATOM     13  N   UNL     1     -29.653 -15.063  12.124  0.00  0.00    -0.191 NA
ATOM     14  C   UNL     1     -29.854 -14.690  13.200  0.00  0.00    +0.099 C 
ENDBRANCH   1  14
BRANCH  11  15
ATOM     15  C   UNL     1     -33.242 -11.004  20.616  0.00  0.00    +0.138 C 
BRANCH  15  16
ATOM     16  C   UNL     1     -33.000  -9.552  20.294  0.00  0.00    -0.028 A 
ATOM     17  C   UNL     1     -33.893  -8.846  19.473  0.00  0.00    +0.005 A 
ATOM     18  C   UNL     1     -33.667  -7.500  19.182  0.00  0.00    +0.003 A 
ATOM     19  C   UNL     1     -32.556  -6.843  19.714  0.00  0.00    +0.033 A 
ATOM     20  C   UNL     1     -31.656  -7.526  20.549  0.00  0.00    +0.127 A 
ATOM     21  C   UNL     1     -31.890  -8.885  20.838  0.00  0.00    +0.038 A 
BRANCH  20  22
ATOM     22  N   UNL     1     -30.513  -6.846  21.100  0.00  0.00    +0.056 N 
ATOM     23  O   UNL     1     -30.092  -5.647  20.572  0.00  0.00    -0.126 OA
ATOM     24  O   UNL     1     -29.883  -7.332  22.062  0.00  0.00    -0.126 OA
ENDBRANCH  20  22
ENDBRANCH  15  16
ENDBRANCH  11  15
TORSDOF 4
ENDMDL
MODEL 8
REMARK VINA RESULT:    -3.286      4.805      6.958
REMARK INTER + INTRA:          -4.385
REMARK INTER:                  -3.997
REMARK INTRA:                  -0.389
REMARK UNBOUND:                -0.331
REMARK  Name = 
REMARK  4 active torsions:
REMARK  status: ('A' for Active; 'I' for Inactive)
REMARK    1  A    between atoms: C_2  and  C_3
REMARK    2  A    between atoms: N_13  and  C_14
REMARK    3  A    between atoms: C_14  and  C_15
REMARK    4  A    between atoms: C_19  and  N_21
REMARK                            x       y       z     vdW  Elec       q    Type
REMARK                         _______ _______ _______ _____ _____    ______ ____
ROOT
ATOM      1  C   UNL     1     -30.369 -13.831  14.320  0.00  0.00    +0.052 A 
ATOM      2  C   UNL     1     -29.703 -14.481  15.368  0.00  0.00    +0.021 A 
ATOM      3  C   UNL     1     -29.566 -13.854  16.611  0.00  0.00    +0.029 A 
ATOM      4  C   UNL     1     -30.093 -12.575  16.812  0.00  0.00    +0.073 A 
ATOM      5  N   UNL     1     -29.959 -11.962  18.019  0.00  0.00    -0.232 NA
ATOM      6  C   UNL     1     -30.453 -10.716  18.262  0.00  0.00    +0.120 A 
ATOM      7  C   UNL     1     -31.134 -10.035  17.237  0.00  0.00    +0.044 A 
ATOM      8  C   UNL     1     -31.286 -10.637  15.986  0.00  0.00    +0.013 A 
ATOM      9  C   UNL     1     -30.765 -11.917  15.760  0.00  0.00    +0.002 A 
ATOM     10  C   UNL     1     -30.901 -12.550  14.515  0.00  0.00    +0.029 A 
ATOM     11  N   UNL     1     -30.265 -10.141  19.566  0.00  0.00    -0.325 N 
ATOM     12  H   UNL     1     -29.833 -10.739  20.306  0.00  0.00    +0.148 HD
ENDROOT
BRANCH   1  14
ATOM     13  N   UNL     1     -30.619 -15.005  12.018  0.00  0.00    -0.191 NA
ATOM     14  C   UNL     1     -30.508 -14.482  13.043  0.00  0.00    +0.099 C 
ENDBRANCH   1  14
BRANCH  11  15
ATOM     15  C   UNL     1     -30.582  -8.755  19.918  0.00  0.00    +0.138 C 
BRANCH  15  16
ATOM     16  C   UNL     1     -31.939  -8.668  20.566  0.00  0.00    -0.028 A 
ATOM     17  C   UNL     1     -32.467  -9.764  21.265  0.00  0.00    +0.005 A 
ATOM     18  C   UNL     1     -33.723  -9.676  21.867  0.00  0.00    +0.003 A 
ATOM     19  C   UNL     1     -34.459  -8.492  21.787  0.00  0.00    +0.033 A 
ATOM     20  C   UNL     1     -33.945  -7.378  21.103  0.00  0.00    +0.127 A 
ATOM     21  C   UNL     1     -32.677  -7.475  20.498  0.00  0.00    +0.038 A 
BRANCH  20  22
ATOM     22  N   UNL     1     -34.704  -6.157  21.025  0.00  0.00    +0.056 N 
ATOM     23  O   UNL     1     -35.062  -5.634  19.805  0.00  0.00    -0.126 OA
ATOM     24  O   UNL     1     -35.048  -5.552  22.062  0.00  0.00    -0.126 OA
ENDBRANCH  20  22
ENDBRANCH  15  16
ENDBRANCH  11  15
TORSDOF 4
ENDMDL
