MODEL 1
REMARK VINA RESULT:    -3.727      0.000      0.000
REMARK INTER + INTRA:          -5.147
REMARK INTER:                  -4.599
REMARK INTRA:                  -0.548
REMARK UNBOUND:                -0.548
REMARK  Name = 
REMARK  6 active torsions:
REMARK  status: ('A' for Active; 'I' for Inactive)
REMARK    1  A    between atoms: C_1  and  C_2
REMARK    2  A    between atoms: C_2  and  C_3
REMARK    3  A    between atoms: C_3  and  C_4
REMARK    4  A    between atoms: C_3  and  N_6
REMARK    5  A    between atoms: C_4  and  C_5
REMARK    6  A    between atoms: C_10  and  N_14
REMARK                            x       y       z     vdW  Elec       q    Type
REMARK                         _______ _______ _______ _____ _____    ______ ____
ROOT
ATOM      1  N   UNL     1     -31.324 -12.862  19.989  0.00  0.00    -0.311 N 
ATOM      2  C   UNL     1     -29.898 -12.998  20.061  0.00  0.00    +0.217 A 
ATOM      3  N   UNL     1     -29.094 -12.330  19.194  0.00  0.00    -0.221 NA
ATOM      4  C   UNL     1     -27.744 -12.451  19.253  0.00  0.00    +0.150 A 
ATOM      5  C   UNL     1     -27.149 -13.265  20.227  0.00  0.00    +0.184 A 
ATOM      6  C   UNL     1     -28.001 -13.973  21.102  0.00  0.00    +0.152 A 
ATOM      7  N   UNL     1     -27.494 -14.905  22.062  0.00  0.00    -0.341 N 
ATOM      8  N   UNL     1     -29.347 -13.812  20.997  0.00  0.00    -0.198 NA
ATOM      9  H   UNL     1     -31.900 -13.380  20.691  0.00  0.00    +0.149 HD
ATOM     10  H   UNL     1     -28.147 -15.351  22.744  0.00  0.00    +0.144 HD
ATOM     11  H   UNL     1     -26.512 -15.252  22.035  0.00  0.00    +0.144 HD
ENDROOT
BRANCH   5  12
ATOM     12  N   UNL     1     -25.717 -13.331  20.321  0.00  0.00    +0.061 N 
ATOM     13  O   UNL     1     -24.938 -12.586  19.466  0.00  0.00    -0.126 OA
ATOM     14  O   UNL     1     -25.174 -13.885  21.300  0.00  0.00    -0.126 OA
ENDBRANCH   5  12
BRANCH   1  15
ATOM     15  C   UNL     1     -31.984 -12.003  18.997  0.00  0.00    +0.073 C 
BRANCH  15  17
ATOM     16  C   UNL     1     -31.687 -13.110  16.708  0.00  0.00    +0.006 C 
ATOM     17  C   UNL     1     -32.628 -12.882  17.891  0.00  0.00    +0.019 C 
ENDBRANCH  15  17
BRANCH  15  18
ATOM     18  C   UNL     1     -33.021 -11.103  19.708  0.00  0.00    +0.019 C 
ATOM     19  C   UNL     1     -32.779 -10.979  21.212  0.00  0.00    +0.006 C 
ENDBRANCH  15  18
ENDBRANCH   1  15
TORSDOF 4
ENDMDL
MODEL 2
REMARK VINA RESULT:    -3.705      2.017      2.305
REMARK INTER + INTRA:          -5.119
REMARK INTER:                  -4.478
REMARK INTRA:                  -0.641
REMARK UNBOUND:                -0.548
REMARK  Name = 
REMARK  6 active torsions:
REMARK  status: ('A' for Active; 'I' for Inactive)
REMARK    1  A    between atoms: C_1  and  C_2
REMARK    2  A    between atoms: C_2  and  C_3
REMARK    3  A    between atoms: C_3  and  C_4
REMARK    4  A    between atoms: C_3  and  N_6
REMARK    5  A    between atoms: C_4  and  C_5
REMARK    6  A    between atoms: C_10  and  N_14
REMARK                            x       y       z     vdW  Elec       q    Type
REMARK                         _______ _______ _______ _____ _____    ______ ____
ROOT
ATOM      1  N   UNL     1     -30.669 -11.816  17.862  0.00  0.00    -0.311 N 
ATOM      2  C   UNL     1     -29.478 -12.218  18.551  0.00  0.00    +0.217 A 
ATOM      3  N   UNL     1     -28.257 -11.796  18.129  0.00  0.00    -0.221 NA
ATOM      4  C   UNL     1     -27.124 -12.170  18.774  0.00  0.00    +0.150 A 
ATOM      5  C   UNL     1     -27.192 -12.996  19.904  0.00  0.00    +0.184 A 
ATOM      6  C   UNL     1     -28.466 -13.448  20.312  0.00  0.00    +0.152 A 
ATOM      7  N   UNL     1     -28.632 -14.373  21.391  0.00  0.00    -0.341 N 
ATOM      8  N   UNL     1     -29.569 -13.039  19.629  0.00  0.00    -0.198 NA
ATOM      9  H   UNL     1     -31.587 -12.149  18.237  0.00  0.00    +0.149 HD
ATOM     10  H   UNL     1     -29.592 -14.624  21.714  0.00  0.00    +0.144 HD
ATOM     11  H   UNL     1     -27.831 -14.904  21.795  0.00  0.00    +0.144 HD
ENDROOT
BRANCH   5  12
ATOM     12  N   UNL     1     -25.990 -13.330  20.616  0.00  0.00    +0.061 N 
ATOM     13  O   UNL     1     -26.045 -13.605  21.963  0.00  0.00    -0.126 OA
ATOM     14  O   UNL     1     -24.938 -13.583  19.993  0.00  0.00    -0.126 OA
ENDBRANCH   5  12
BRANCH   1  15
ATOM     15  C   UNL     1     -30.640 -10.935  16.688  0.00  0.00    +0.073 C 
BRANCH  15  17
ATOM     16  C   UNL     1     -30.782 -12.891  15.043  0.00  0.00    +0.006 C 
ATOM     17  C   UNL     1     -31.429 -11.592  15.522  0.00  0.00    +0.019 C 
ENDBRANCH  15  17
BRANCH  15  18
ATOM     18  C   UNL     1     -31.211  -9.550  17.072  0.00  0.00    +0.019 C 
ATOM     19  C   UNL     1     -32.665  -9.359  16.645  0.00  0.00    +0.006 C 
ENDBRANCH  15  18
ENDBRANCH   1  15
TORSDOF 4
ENDMDL
MODEL 3
REMARK VINA RESULT:    -3.608      3.384      5.120
REMARK INTER + INTRA:          -5.000
REMARK INTER:                  -4.489
REMARK INTRA:                  -0.511
REMARK UNBOUND:                -0.548
REMARK  Name = 
REMARK  6 active torsions:
REMARK  status: ('A' for Active; 'I' for Inactive)
REMARK    1  A    between atoms: C_1  and  C_2
REMARK    2  A    between atoms: C_2  and  C_3
REMARK    3  A    between atoms: C_3  and  C_4
REMARK    4  A    between atoms: C_3  and  N_6
REMARK    5  A    between atoms: C_4  and  C_5
REMARK    6  A    between atoms: C_10  and  N_14
REMARK                            x       y       z     vdW  Elec       q    Type
REMARK                         _______ _______ _______ _____ _____    ______ ____
ROOT
ATOM      1  N   UNL     1     -29.144 -14.003  15.191  0.00  0.00    -0.311 N 
ATOM      2  C   UNL     1     -29.338 -13.750  16.589  0.00  0.00    +0.217 A 
ATOM      3  N   UNL     1     -30.556 -13.930  17.164  0.00  0.00    -0.221 NA
ATOM      4  C   UNL     1     -30.750 -13.693  18.485  0.00  0.00    +0.150 A 
ATOM      5  C   UNL     1     -29.686 -13.267  19.292  0.00  0.00    +0.184 A 
ATOM      6  C   UNL     1     -28.434 -13.060  18.673  0.00  0.00    +0.152 A 
ATOM      7  N   UNL     1     -27.313 -12.532  19.389  0.00  0.00    -0.341 N 
ATOM      8  N   UNL     1     -28.296 -13.314  17.344  0.00  0.00    -0.198 NA
ATOM      9  H   UNL     1     -28.184 -13.871  14.799  0.00  0.00    +0.149 HD
ATOM     10  H   UNL     1     -26.384 -12.464  18.918  0.00  0.00    +0.144 HD
ATOM     11  H   UNL     1     -27.411 -12.095  20.331  0.00  0.00    +0.144 HD
ENDROOT
BRANCH   5  12
ATOM     12  N   UNL     1     -29.890 -13.086  20.702  0.00  0.00    +0.061 N 
ATOM     13  O   UNL     1     -28.866 -13.350  21.583  0.00  0.00    -0.126 OA
ATOM     14  O   UNL     1     -30.904 -12.491  21.121  0.00  0.00    -0.126 OA
ENDBRANCH   5  12
BRANCH   1  15
ATOM     15  C   UNL     1     -30.229 -14.470  14.318  0.00  0.00    +0.073 C 
BRANCH  15  17
ATOM     16  C   UNL     1     -31.704 -13.299  12.584  0.00  0.00    +0.006 C 
ATOM     17  C   UNL     1     -31.208 -13.299  14.030  0.00  0.00    +0.019 C 
ENDBRANCH  15  17
BRANCH  15  18
ATOM     18  C   UNL     1     -29.625 -15.060  13.022  0.00  0.00    +0.019 C 
ATOM     19  C   UNL     1     -28.101 -14.963  12.970  0.00  0.00    +0.006 C 
ENDBRANCH  15  18
ENDBRANCH   1  15
TORSDOF 4
ENDMDL
MODEL 4
REMARK VINA RESULT:    -3.586      3.415      4.605
REMARK INTER + INTRA:          -4.972
REMARK INTER:                  -4.397
REMARK INTRA:                  -0.576
REMARK UNBOUND:                -0.548
REMARK  Name = 
REMARK  6 active torsions:
REMARK  status: ('A' for Active; 'I' for Inactive)
REMARK    1  A    between atoms: C_1  and  C_2
REMARK    2  A    between atoms: C_2  and  C_3
REMARK    3  A    between atoms: C_3  and  C_4
REMARK    4  A    between atoms: C_3  and  N_6
REMARK    5  A    between atoms: C_4  and  C_5
REMARK    6  A    between atoms: C_10  and  N_14
REMARK                            x       y       z     vdW  Elec       q    Type
REMARK                         _______ _______ _______ _____ _____    ______ ____
ROOT
ATOM      1  N   UNL     1     -31.600 -13.013  14.851  0.00  0.00    -0.311 N 
ATOM      2  C   UNL     1     -30.844 -12.528  15.968  0.00  0.00    +0.217 A 
ATOM      3  N   UNL     1     -30.660 -11.195  16.153  0.00  0.00    -0.221 NA
ATOM      4  C   UNL     1     -29.947 -10.725  17.207  0.00  0.00    +0.150 A 
ATOM      5  C   UNL     1     -29.393 -11.612  18.139  0.00  0.00    +0.184 A 
ATOM      6  C   UNL     1     -29.571 -12.995  17.917  0.00  0.00    +0.152 A 
ATOM      7  N   UNL     1     -28.962 -13.982  18.755  0.00  0.00    -0.341 N 
ATOM      8  N   UNL     1     -30.297 -13.410  16.844  0.00  0.00    -0.198 NA
ATOM      9  H   UNL     1     -31.732 -14.047  14.762  0.00  0.00    +0.149 HD
ATOM     10  H   UNL     1     -29.179 -14.992  18.606  0.00  0.00    +0.144 HD
ATOM     11  H   UNL     1     -28.210 -13.744  19.437  0.00  0.00    +0.144 HD
ENDROOT
BRANCH   5  12
ATOM     12  N   UNL     1     -28.698 -11.098  19.287  0.00  0.00    +0.061 N 
ATOM     13  O   UNL     1     -29.401 -10.481  20.295  0.00  0.00    -0.126 OA
ATOM     14  O   UNL     1     -27.500 -11.391  19.482  0.00  0.00    -0.126 OA
ENDBRANCH   5  12
BRANCH   1  15
ATOM     15  C   UNL     1     -32.213 -12.114  13.864  0.00  0.00    +0.073 C 
BRANCH  15  17
ATOM     16  C   UNL     1     -33.578 -13.103  11.938  0.00  0.00    +0.006 C 
ATOM     17  C   UNL     1     -32.179 -12.778  12.460  0.00  0.00    +0.019 C 
ENDBRANCH  15  17
BRANCH  15  18
ATOM     18  C   UNL     1     -33.652 -11.767  14.312  0.00  0.00    +0.019 C 
ATOM     19  C   UNL     1     -33.835 -10.289  14.652  0.00  0.00    +0.006 C 
ENDBRANCH  15  18
ENDBRANCH   1  15
TORSDOF 4
ENDMDL
MODEL 5
REMARK VINA RESULT:    -3.570      3.506      5.120
REMARK INTER + INTRA:          -4.953
REMARK INTER:                  -4.308
REMARK INTRA:                  -0.646
REMARK UNBOUND:                -0.548
REMARK  Name = 
REMARK  6 active torsions:
REMARK  status: ('A' for Active; 'I' for Inactive)
REMARK    1  A    between atoms: C_1  and  C_2
REMARK    2  A    between atoms: C_2  and  C_3
REMARK    3  A    between atoms: C_3  and  C_4
REMARK    4  A    between atoms: C_3  and  N_6
REMARK    5  A    between atoms: C_4  and  C_5
REMARK    6  A    between atoms: C_10  and  N_14
REMARK                            x       y       z     vdW  Elec       q    Type
REMARK                         _______ _______ _______ _____ _____    ______ ____
ROOT
ATOM      1  N   UNL     1     -31.568 -13.720  15.017  0.00  0.00    -0.311 N 
ATOM      2  C   UNL     1     -31.082 -13.100  16.215  0.00  0.00    +0.217 A 
ATOM      3  N   UNL     1     -30.510 -11.869  16.176  0.00  0.00    -0.221 NA
ATOM      4  C   UNL     1     -30.047 -11.274  17.304  0.00  0.00    +0.150 A 
ATOM      5  C   UNL     1     -30.162 -11.919  18.543  0.00  0.00    +0.184 A 
ATOM      6  C   UNL     1     -30.735 -13.210  18.561  0.00  0.00    +0.152 A 
ATOM      7  N   UNL     1     -30.806 -13.989  19.759  0.00  0.00    -0.341 N 
ATOM      8  N   UNL     1     -31.184 -13.757  17.400  0.00  0.00    -0.198 NA
ATOM      9  H   UNL     1     -32.020 -14.659  15.101  0.00  0.00    +0.149 HD
ATOM     10  H   UNL     1     -31.305 -14.906  19.750  0.00  0.00    +0.144 HD
ATOM     11  H   UNL     1     -30.274 -13.736  20.619  0.00  0.00    +0.144 HD
ENDROOT
BRANCH   5  12
ATOM     12  N   UNL     1     -29.729 -11.249  19.738  0.00  0.00    +0.061 N 
ATOM     13  O   UNL     1     -29.243 -11.981  20.796  0.00  0.00    -0.126 OA
ATOM     14  O   UNL     1     -29.586 -10.009  19.748  0.00  0.00    -0.126 OA
ENDBRANCH   5  12
BRANCH   1  15
ATOM     15  C   UNL     1     -31.484 -13.067  13.704  0.00  0.00    +0.073 C 
BRANCH  15  17
ATOM     16  C   UNL     1     -29.438 -14.421  12.974  0.00  0.00    +0.006 C 
ATOM     17  C   UNL     1     -30.891 -14.059  12.666  0.00  0.00    +0.019 C 
ENDBRANCH  15  17
BRANCH  15  18
ATOM     18  C   UNL     1     -32.886 -12.560  13.293  0.00  0.00    +0.019 C 
ATOM     19  C   UNL     1     -33.345 -13.095  11.938  0.00  0.00    +0.006 C 
ENDBRANCH  15  18
ENDBRANCH   1  15
TORSDOF 4
ENDMDL
MODEL 6
REMARK VINA RESULT:    -3.430      2.157      2.742
REMARK INTER + INTRA:          -4.780
REMARK INTER:                  -4.171
REMARK INTRA:                  -0.609
REMARK UNBOUND:                -0.548
REMARK  Name = 
REMARK  6 active torsions:
REMARK  status: ('A' for Active; 'I' for Inactive)
REMARK    1  A    between atoms: C_1  and  C_2
REMARK    2  A    between atoms: C_2  and  C_3
REMARK    3  A    between atoms: C_3  and  C_4
REMARK    4  A    between atoms: C_3  and  N_6
REMARK    5  A    between atoms: C_4  and  C_5
REMARK    6  A    between atoms: C_10  and  N_14
REMARK                            x       y       z     vdW  Elec       q    Type
REMARK                         _______ _______ _______ _____ _____    ______ ____
ROOT
ATOM      1  N   UNL     1     -32.560 -12.141  17.891  0.00  0.00    -0.311 N 
ATOM      2  C   UNL     1     -31.145 -12.096  18.116  0.00  0.00    +0.217 A 
ATOM      3  N   UNL     1     -30.402 -11.059  17.649  0.00  0.00    -0.221 NA
ATOM      4  C   UNL     1     -29.062 -11.006  17.857  0.00  0.00    +0.150 A 
ATOM      5  C   UNL     1     -28.417 -12.021  18.574  0.00  0.00    +0.184 A 
ATOM      6  C   UNL     1     -29.200 -13.105  19.029  0.00  0.00    +0.152 A 
ATOM      7  N   UNL     1     -28.619 -14.237  19.683  0.00  0.00    -0.341 N 
ATOM      8  N   UNL     1     -30.540 -13.105  18.793  0.00  0.00    -0.198 NA
ATOM      9  H   UNL     1     -33.093 -12.949  18.288  0.00  0.00    +0.149 HD
ATOM     10  H   UNL     1     -29.237 -14.982  20.074  0.00  0.00    +0.144 HD
ATOM     11  H   UNL     1     -27.591 -14.413  19.682  0.00  0.00    +0.144 HD
ENDROOT
BRANCH   5  12
ATOM     12  N   UNL     1     -27.010 -11.918  18.845  0.00  0.00    +0.061 N 
ATOM     13  O   UNL     1     -26.364 -12.933  19.513  0.00  0.00    -0.126 OA
ATOM     14  O   UNL     1     -26.326 -11.027  18.299  0.00  0.00    -0.126 OA
ENDBRANCH   5  12
BRANCH   1  15
ATOM     15  C   UNL     1     -33.276 -11.086  17.162  0.00  0.00    +0.073 C 
BRANCH  15  17
ATOM     16  C   UNL     1     -33.883 -11.265  14.681  0.00  0.00    +0.006 C 
ATOM     17  C   UNL     1     -34.212 -11.727  16.101  0.00  0.00    +0.019 C 
ENDBRANCH  15  17
BRANCH  15  18
ATOM     18  C   UNL     1     -34.050 -10.203  18.168  0.00  0.00    +0.019 C 
ATOM     19  C   UNL     1     -33.467  -8.797  18.306  0.00  0.00    +0.006 C 
ENDBRANCH  15  18
ENDBRANCH   1  15
TORSDOF 4
ENDMDL
MODEL 7
REMARK VINA RESULT:    -3.393      5.154      6.588
REMARK INTER + INTRA:          -4.734
REMARK INTER:                  -4.138
REMARK INTRA:                  -0.597
REMARK UNBOUND:                -0.548
REMARK  Name = 
REMARK  6 active torsions:
REMARK  status: ('A' for Active; 'I' for Inactive)
REMARK    1  A    between atoms: C_1  and  C_2
REMARK    2  A    between atoms: C_2  and  C_3
REMARK    3  A    between atoms: C_3  and  C_4
REMARK    4  A    between atoms: C_3  and  N_6
REMARK    5  A    between atoms: C_4  and  C_5
REMARK    6  A    between atoms: C_10  and  N_14
REMARK                            x       y       z     vdW  Elec       q    Type
REMARK                         _______ _______ _______ _____ _____    ______ ____
ROOT
ATOM      1  N   UNL     1     -32.612 -12.170  14.509  0.00  0.00    -0.311 N 
ATOM      2  C   UNL     1     -32.205 -11.313  15.583  0.00  0.00    +0.217 A 
ATOM      3  N   UNL     1     -30.930 -10.849  15.656  0.00  0.00    -0.221 NA
ATOM      4  C   UNL     1     -30.535 -10.037  16.668  0.00  0.00    +0.150 A 
ATOM      5  C   UNL     1     -31.446  -9.647  17.660  0.00  0.00    +0.184 A 
ATOM      6  C   UNL     1     -32.759 -10.160  17.584  0.00  0.00    +0.152 A 
ATOM      7  N   UNL     1     -33.733  -9.902  18.600  0.00  0.00    -0.341 N 
ATOM      8  N   UNL     1     -33.101 -10.970  16.545  0.00  0.00    -0.198 NA
ATOM      9  H   UNL     1     -33.609 -12.484  14.484  0.00  0.00    +0.149 HD
ATOM     10  H   UNL     1     -34.715 -10.232  18.472  0.00  0.00    +0.144 HD
ATOM     11  H   UNL     1     -33.476  -9.498  19.526  0.00  0.00    +0.144 HD
ENDROOT
BRANCH   5  12
ATOM     12  N   UNL     1     -31.032  -8.734  18.688  0.00  0.00    +0.061 N 
ATOM     13  O   UNL     1     -31.902  -7.768  19.139  0.00  0.00    -0.126 OA
ATOM     14  O   UNL     1     -29.977  -8.937  19.325  0.00  0.00    -0.126 OA
ENDBRANCH   5  12
BRANCH   1  15
ATOM     15  C   UNL     1     -31.693 -12.583  13.441  0.00  0.00    +0.073 C 
BRANCH  15  17
ATOM     16  C   UNL     1     -29.995 -14.384  12.787  0.00  0.00    +0.006 C 
ATOM     17  C   UNL     1     -30.890 -13.833  13.896  0.00  0.00    +0.019 C 
ENDBRANCH  15  17
BRANCH  15  18
ATOM     18  C   UNL     1     -32.497 -12.845  12.146  0.00  0.00    +0.019 C 
ATOM     19  C   UNL     1     -34.007 -12.715  12.340  0.00  0.00    +0.006 C 
ENDBRANCH  15  18
ENDBRANCH   1  15
TORSDOF 4
ENDMDL
MODEL 8
REMARK VINA RESULT:    -3.365      5.382      6.989
REMARK INTER + INTRA:          -4.700
REMARK INTER:                  -4.031
REMARK INTRA:                  -0.669
REMARK UNBOUND:                -0.548
REMARK  Name = 
REMARK  6 active torsions:
REMARK  status: ('A' for Active; 'I' for Inactive)
REMARK    1  A    between atoms: C_1  and  C_2
REMARK    2  A    between atoms: C_2  and  C_3
REMARK    3  A    between atoms: C_3  and  C_4
REMARK    4  A    between atoms: C_3  and  N_6
REMARK    5  A    between atoms: C_4  and  C_5
REMARK    6  A    between atoms: C_10  and  N_14
REMARK                            x       y       z     vdW  Elec       q    Type
REMARK                         _______ _______ _______ _____ _____    ______ ____
ROOT
ATOM      1  N   UNL     1     -31.671 -11.914  13.929  0.00  0.00    -0.311 N 
ATOM      2  C   UNL     1     -32.068 -11.612  15.273  0.00  0.00    +0.217 A 
ATOM      3  N   UNL     1     -32.554 -12.584  16.087  0.00  0.00    -0.221 NA
ATOM      4  C   UNL     1     -32.932 -12.309  17.360  0.00  0.00    +0.150 A 
ATOM      5  C   UNL     1     -32.816 -11.008  17.868  0.00  0.00    +0.184 A 
ATOM      6  C   UNL     1     -32.334 -10.005  16.999  0.00  0.00    +0.152 A 
ATOM      7  N   UNL     1     -32.273  -8.630  17.391  0.00  0.00    -0.341 N 
ATOM      8  N   UNL     1     -31.968 -10.338  15.732  0.00  0.00    -0.198 NA
ATOM      9  H   UNL     1     -31.282 -11.137  13.347  0.00  0.00    +0.149 HD
ATOM     10  H   UNL     1     -31.839  -7.928  16.751  0.00  0.00    +0.144 HD
ATOM     11  H   UNL     1     -32.754  -8.273  18.244  0.00  0.00    +0.144 HD
ENDROOT
BRANCH   5  12
ATOM     12  N   UNL     1     -33.157 -10.745  19.238  0.00  0.00    +0.061 N 
ATOM     13  O   UNL     1     -33.773  -9.562  19.576  0.00  0.00    -0.126 OA
ATOM     14  O   UNL     1     -33.099 -11.657  20.089  0.00  0.00    -0.126 OA
ENDBRANCH   5  12
BRANCH   1  15
ATOM     15  C   UNL     1     -31.758 -13.269  13.368  0.00  0.00    +0.073 C 
BRANCH  15  17
ATOM     16  C   UNL     1     -33.800 -12.671  11.944  0.00  0.00    +0.006 C 
ATOM     17  C   UNL     1     -32.367 -13.204  11.940  0.00  0.00    +0.019 C 
ENDBRANCH  15  17
BRANCH  15  18
ATOM     18  C   UNL     1     -30.354 -13.918  13.376  0.00  0.00    +0.019 C 
ATOM     19  C   UNL     1     -30.126 -14.841  14.572  0.00  0.00    +0.006 C 
ENDBRANCH  15  18
ENDBRANCH   1  15
TORSDOF 4
ENDMDL
MODEL 9
REMARK VINA RESULT:    -3.331      2.235      3.620
REMARK INTER + INTRA:          -4.658
REMARK INTER:                  -3.977
REMARK INTRA:                  -0.681
REMARK UNBOUND:                -0.548
REMARK  Name = 
REMARK  6 active torsions:
REMARK  status: ('A' for Active; 'I' for Inactive)
REMARK    1  A    between atoms: C_1  and  C_2
REMARK    2  A    between atoms: C_2  and  C_3
REMARK    3  A    between atoms: C_3  and  C_4
REMARK    4  A    between atoms: C_3  and  N_6
REMARK    5  A    between atoms: C_4  and  C_5
REMARK    6  A    between atoms: C_10  and  N_14
REMARK                            x       y       z     vdW  Elec       q    Type
REMARK                         _______ _______ _______ _____ _____    ______ ____
ROOT
ATOM      1  N   UNL     1     -30.085  -9.911  17.360  0.00  0.00    -0.311 N 
ATOM      2  C   UNL     1     -29.291 -10.866  18.076  0.00  0.00    +0.217 A 
ATOM      3  N   UNL     1     -29.878 -11.820  18.844  0.00  0.00    -0.221 NA
ATOM      4  C   UNL     1     -29.136 -12.729  19.525  0.00  0.00    +0.150 A 
ATOM      5  C   UNL     1     -27.738 -12.708  19.439  0.00  0.00    +0.184 A 
ATOM      6  C   UNL     1     -27.143 -11.693  18.658  0.00  0.00    +0.152 A 
ATOM      7  N   UNL     1     -25.723 -11.527  18.587  0.00  0.00    -0.341 N 
ATOM      8  N   UNL     1     -27.936 -10.809  17.995  0.00  0.00    -0.198 NA
ATOM      9  H   UNL     1     -29.588  -9.210  16.766  0.00  0.00    +0.149 HD
ATOM     10  H   UNL     1     -25.318 -10.815  17.939  0.00  0.00    +0.144 HD
ATOM     11  H   UNL     1     -25.074 -12.006  19.247  0.00  0.00    +0.144 HD
ENDROOT
BRANCH   5  12
ATOM     12  N   UNL     1     -26.967 -13.717  20.111  0.00  0.00    +0.061 N 
ATOM     13  O   UNL     1     -27.586 -14.586  20.980  0.00  0.00    -0.126 OA
ATOM     14  O   UNL     1     -25.793 -13.953  19.759  0.00  0.00    -0.126 OA
ENDBRANCH   5  12
BRANCH   1  15
ATOM     15  C   UNL     1     -31.553  -9.914  17.409  0.00  0.00    +0.073 C 
BRANCH  15  17
ATOM     16  C   UNL     1     -33.025  -9.349  19.425  0.00  0.00    +0.006 C 
ATOM     17  C   UNL     1     -32.045  -8.809  18.384  0.00  0.00    +0.019 C 
ENDBRANCH  15  17
BRANCH  15  18
ATOM     18  C   UNL     1     -32.113  -9.725  15.980  0.00  0.00    +0.019 C 
ATOM     19  C   UNL     1     -31.828 -10.912  15.061  0.00  0.00    +0.006 C 
ENDBRANCH  15  18
ENDBRANCH   1  15
TORSDOF 4
ENDMDL
