MODEL 1
REMARK VINA RESULT:    -3.615      0.000      0.000
REMARK INTER + INTRA:          -5.112
REMARK INTER:                  -4.460
REMARK INTRA:                  -0.652
REMARK UNBOUND:                -0.652
REMARK  Name = 
REMARK  6 active torsions:
REMARK  status: ('A' for Active; 'I' for Inactive)
REMARK    1  A    between atoms: C_1  and  C_2
REMARK    2  A    between atoms: C_2  and  C_3
REMARK    3  A    between atoms: C_3  and  C_4
REMARK    4  A    between atoms: C_3  and  N_6
REMARK    5  A    between atoms: C_4  and  C_5
REMARK    6  A    between atoms: C_10  and  N_14
REMARK                            x       y       z     vdW  Elec       q    Type
REMARK                         _______ _______ _______ _____ _____    ______ ____
ROOT
ATOM      1  N   UNL     1     -30.712 -11.855  17.793  0.00  0.00    -0.311 N 
ATOM      2  C   UNL     1     -29.515 -12.231  18.487  0.00  0.00    +0.217 A 
ATOM      3  N   UNL     1     -28.303 -11.780  18.072  0.00  0.00    -0.221 NA
ATOM      4  C   UNL     1     -27.164 -12.129  18.721  0.00  0.00    +0.150 A 
ATOM      5  C   UNL     1     -27.218 -12.959  19.848  0.00  0.00    +0.184 A 
ATOM      6  C   UNL     1     -28.483 -13.441  20.250  0.00  0.00    +0.152 A 
ATOM      7  N   UNL     1     -28.632 -14.371  21.326  0.00  0.00    -0.341 N 
ATOM      8  N   UNL     1     -29.592 -13.056  19.562  0.00  0.00    -0.198 NA
ATOM      9  H   UNL     1     -31.623 -12.211  18.163  0.00  0.00    +0.149 HD
ATOM     10  H   UNL     1     -29.588 -14.646  21.644  0.00  0.00    +0.144 HD
ATOM     11  H   UNL     1     -27.821 -14.885  21.732  0.00  0.00    +0.144 HD
ENDROOT
BRANCH   5  12
ATOM     12  N   UNL     1     -26.011 -13.266  20.565  0.00  0.00    +0.061 N 
ATOM     13  O   UNL     1     -26.073 -13.610  21.896  0.00  0.00    -0.126 OA
ATOM     14  O   UNL     1     -24.938 -13.433  19.950  0.00  0.00    -0.126 OA
ENDBRANCH   5  12
BRANCH   1  15
ATOM     15  C   UNL     1     -30.698 -10.971  16.621  0.00  0.00    +0.073 C 
BRANCH  15  17
ATOM     16  C   UNL     1     -30.853 -12.893  14.937  0.00  0.00    +0.006 C 
ATOM     17  C   UNL     1     -31.512 -11.620  15.468  0.00  0.00    +0.019 C 
ENDBRANCH  15  17
BRANCH  15  18
ATOM     18  C   UNL     1     -31.252  -9.583  17.019  0.00  0.00    +0.019 C 
ATOM     19  C   UNL     1     -32.699  -9.366  16.580  0.00  0.00    +0.006 C 
ENDBRANCH  15  18
ENDBRANCH   1  15
TORSDOF 4
ENDMDL
MODEL 2
REMARK VINA RESULT:    -3.595      1.884      2.188
REMARK INTER + INTRA:          -5.088
REMARK INTER:                  -4.481
REMARK INTRA:                  -0.606
REMARK UNBOUND:                -0.652
REMARK  Name = 
REMARK  6 active torsions:
REMARK  status: ('A' for Active; 'I' for Inactive)
REMARK    1  A    between atoms: C_1  and  C_2
REMARK    2  A    between atoms: C_2  and  C_3
REMARK    3  A    between atoms: C_3  and  C_4
REMARK    4  A    between atoms: C_3  and  N_6
REMARK    5  A    between atoms: C_4  and  C_5
REMARK    6  A    between atoms: C_10  and  N_14
REMARK                            x       y       z     vdW  Elec       q    Type
REMARK                         _______ _______ _______ _____ _____    ______ ____
ROOT
ATOM      1  N   UNL     1     -31.284 -13.179  19.800  0.00  0.00    -0.311 N 
ATOM      2  C   UNL     1     -29.857 -13.198  19.926  0.00  0.00    +0.217 A 
ATOM      3  N   UNL     1     -29.076 -12.485  19.073  0.00  0.00    -0.221 NA
ATOM      4  C   UNL     1     -27.724 -12.495  19.184  0.00  0.00    +0.150 A 
ATOM      5  C   UNL     1     -27.103 -13.239  20.196  0.00  0.00    +0.184 A 
ATOM      6  C   UNL     1     -27.928 -13.996  21.056  0.00  0.00    +0.152 A 
ATOM      7  N   UNL     1     -27.385 -14.864  22.056  0.00  0.00    -0.341 N 
ATOM      8  N   UNL     1     -29.278 -13.946  20.900  0.00  0.00    -0.198 NA
ATOM      9  H   UNL     1     -31.844 -13.727  20.492  0.00  0.00    +0.149 HD
ATOM     10  H   UNL     1     -28.025 -15.348  22.724  0.00  0.00    +0.144 HD
ATOM     11  H   UNL     1     -26.377 -15.132  22.072  0.00  0.00    +0.144 HD
ENDROOT
BRANCH   5  12
ATOM     12  N   UNL     1     -25.674 -13.188  20.343  0.00  0.00    +0.061 N 
ATOM     13  O   UNL     1     -24.938 -12.311  19.581  0.00  0.00    -0.126 OA
ATOM     14  O   UNL     1     -25.118 -13.769  21.298  0.00  0.00    -0.126 OA
ENDBRANCH   5  12
BRANCH   1  15
ATOM     15  C   UNL     1     -31.973 -12.396  18.765  0.00  0.00    +0.073 C 
BRANCH  15  17
ATOM     16  C   UNL     1     -32.222 -12.725  16.239  0.00  0.00    +0.006 C 
ATOM     17  C   UNL     1     -32.442 -13.338  17.622  0.00  0.00    +0.019 C 
ENDBRANCH  15  17
BRANCH  15  18
ATOM     18  C   UNL     1     -33.150 -11.623  19.406  0.00  0.00    +0.019 C 
ATOM     19  C   UNL     1     -32.705 -10.374  20.166  0.00  0.00    +0.006 C 
ENDBRANCH  15  18
ENDBRANCH   1  15
TORSDOF 4
ENDMDL
MODEL 3
REMARK VINA RESULT:    -3.518      2.483      3.379
REMARK INTER + INTRA:          -4.993
REMARK INTER:                  -4.369
REMARK INTRA:                  -0.625
REMARK UNBOUND:                -0.652
REMARK  Name = 
REMARK  6 active torsions:
REMARK  status: ('A' for Active; 'I' for Inactive)
REMARK    1  A    between atoms: C_1  and  C_2
REMARK    2  A    between atoms: C_2  and  C_3
REMARK    3  A    between atoms: C_3  and  C_4
REMARK    4  A    between atoms: C_3  and  N_6
REMARK    5  A    between atoms: C_4  and  C_5
REMARK    6  A    between atoms: C_10  and  N_14
REMARK                            x       y       z     vdW  Elec       q    Type
REMARK                         _______ _______ _______ _____ _____    ______ ____
ROOT
ATOM      1  N   UNL     1     -31.773 -12.853  14.858  0.00  0.00    -0.311 N 
ATOM      2  C   UNL     1     -30.976 -12.424  15.970  0.00  0.00    +0.217 A 
ATOM      3  N   UNL     1     -30.736 -11.104  16.184  0.00  0.00    -0.221 NA
ATOM      4  C   UNL     1     -29.984 -10.688  17.233  0.00  0.00    +0.150 A 
ATOM      5  C   UNL     1     -29.445 -11.619  18.131  0.00  0.00    +0.184 A 
ATOM      6  C   UNL     1     -29.681 -12.989  17.879  0.00  0.00    +0.152 A 
ATOM      7  N   UNL     1     -29.093 -14.018  18.679  0.00  0.00    -0.341 N 
ATOM      8  N   UNL     1     -30.445 -13.348  16.812  0.00  0.00    -0.198 NA
ATOM      9  H   UNL     1     -31.947 -13.878  14.748  0.00  0.00    +0.149 HD
ATOM     10  H   UNL     1     -29.352 -15.016  18.511  0.00  0.00    +0.144 HD
ATOM     11  H   UNL     1     -28.319 -13.826  19.350  0.00  0.00    +0.144 HD
ENDROOT
BRANCH   5  12
ATOM     12  N   UNL     1     -28.706 -11.161  19.275  0.00  0.00    +0.061 N 
ATOM     13  O   UNL     1     -29.347 -10.455  20.267  0.00  0.00    -0.126 OA
ATOM     14  O   UNL     1     -27.547 -11.575  19.484  0.00  0.00    -0.126 OA
ENDBRANCH   5  12
BRANCH   1  15
ATOM     15  C   UNL     1     -32.372 -11.907  13.908  0.00  0.00    +0.073 C 
BRANCH  15  17
ATOM     16  C   UNL     1     -33.567 -13.021  11.938  0.00  0.00    +0.006 C 
ATOM     17  C   UNL     1     -32.244 -12.466  12.464  0.00  0.00    +0.019 C 
ENDBRANCH  15  17
BRANCH  15  18
ATOM     18  C   UNL     1     -33.843 -11.643  14.305  0.00  0.00    +0.019 C 
ATOM     19  C   UNL     1     -34.062 -10.259  14.913  0.00  0.00    +0.006 C 
ENDBRANCH  15  18
ENDBRANCH   1  15
TORSDOF 4
ENDMDL
MODEL 4
REMARK VINA RESULT:    -3.468      3.991      5.549
REMARK INTER + INTRA:          -4.932
REMARK INTER:                  -4.607
REMARK INTRA:                  -0.325
REMARK UNBOUND:                -0.652
REMARK  Name = 
REMARK  6 active torsions:
REMARK  status: ('A' for Active; 'I' for Inactive)
REMARK    1  A    between atoms: C_1  and  C_2
REMARK    2  A    between atoms: C_2  and  C_3
REMARK    3  A    between atoms: C_3  and  C_4
REMARK    4  A    between atoms: C_3  and  N_6
REMARK    5  A    between atoms: C_4  and  C_5
REMARK    6  A    between atoms: C_10  and  N_14
REMARK                            x       y       z     vdW  Elec       q    Type
REMARK                         _______ _______ _______ _____ _____    ______ ____
ROOT
ATOM      1  N   UNL     1     -31.869 -12.034  14.154  0.00  0.00    -0.311 N 
ATOM      2  C   UNL     1     -31.607 -11.238  15.317  0.00  0.00    +0.217 A 
ATOM      3  N   UNL     1     -30.534 -11.499  16.109  0.00  0.00    -0.221 NA
ATOM      4  C   UNL     1     -30.276 -10.752  17.211  0.00  0.00    +0.150 A 
ATOM      5  C   UNL     1     -31.112  -9.680  17.550  0.00  0.00    +0.184 A 
ATOM      6  C   UNL     1     -32.238  -9.440  16.733  0.00  0.00    +0.152 A 
ATOM      7  N   UNL     1     -33.204  -8.434  17.051  0.00  0.00    -0.341 N 
ATOM      8  N   UNL     1     -32.446 -10.220  15.638  0.00  0.00    -0.198 NA
ATOM      9  H   UNL     1     -32.695 -11.782  13.565  0.00  0.00    +0.149 HD
ATOM     10  H   UNL     1     -33.981  -8.233  16.383  0.00  0.00    +0.144 HD
ATOM     11  H   UNL     1     -33.237  -7.970  17.984  0.00  0.00    +0.144 HD
ENDROOT
BRANCH   5  12
ATOM     12  N   UNL     1     -30.790  -8.856  18.682  0.00  0.00    +0.061 N 
ATOM     13  O   UNL     1     -31.728  -7.983  19.185  0.00  0.00    -0.126 OA
ATOM     14  O   UNL     1     -29.754  -9.072  19.345  0.00  0.00    -0.126 OA
ENDBRANCH   5  12
BRANCH   1  15
ATOM     15  C   UNL     1     -31.005 -13.152  13.754  0.00  0.00    +0.073 C 
BRANCH  15  17
ATOM     16  C   UNL     1     -29.679 -14.919  15.047  0.00  0.00    +0.006 C 
ATOM     17  C   UNL     1     -31.042 -14.257  14.846  0.00  0.00    +0.019 C 
ENDBRANCH  15  17
BRANCH  15  18
ATOM     18  C   UNL     1     -31.456 -13.680  12.372  0.00  0.00    +0.019 C 
ATOM     19  C   UNL     1     -32.884 -13.272  12.011  0.00  0.00    +0.006 C 
ENDBRANCH  15  18
ENDBRANCH   1  15
TORSDOF 4
ENDMDL
MODEL 5
REMARK VINA RESULT:    -3.378      1.463      2.805
REMARK INTER + INTRA:          -4.820
REMARK INTER:                  -4.114
REMARK INTRA:                  -0.707
REMARK UNBOUND:                -0.652
REMARK  Name = 
REMARK  6 active torsions:
REMARK  status: ('A' for Active; 'I' for Inactive)
REMARK    1  A    between atoms: C_1  and  C_2
REMARK    2  A    between atoms: C_2  and  C_3
REMARK    3  A    between atoms: C_3  and  C_4
REMARK    4  A    between atoms: C_3  and  N_6
REMARK    5  A    between atoms: C_4  and  C_5
REMARK    6  A    between atoms: C_10  and  N_14
REMARK                            x       y       z     vdW  Elec       q    Type
REMARK                         _______ _______ _______ _____ _____    ______ ____
ROOT
ATOM      1  N   UNL     1     -29.260 -10.255  17.810  0.00  0.00    -0.311 N 
ATOM      2  C   UNL     1     -28.690 -11.350  18.539  0.00  0.00    +0.217 A 
ATOM      3  N   UNL     1     -29.483 -12.306  19.087  0.00  0.00    -0.221 NA
ATOM      4  C   UNL     1     -28.954 -13.347  19.778  0.00  0.00    +0.150 A 
ATOM      5  C   UNL     1     -27.566 -13.463  19.929  0.00  0.00    +0.184 A 
ATOM      6  C   UNL     1     -26.757 -12.446  19.376  0.00  0.00    +0.152 A 
ATOM      7  N   UNL     1     -25.339 -12.421  19.562  0.00  0.00    -0.341 N 
ATOM      8  N   UNL     1     -27.343 -11.426  18.692  0.00  0.00    -0.198 NA
ATOM      9  H   UNL     1     -28.608  -9.556  17.388  0.00  0.00    +0.149 HD
ATOM     10  H   UNL     1     -24.766 -11.698  19.074  0.00  0.00    +0.144 HD
ATOM     11  H   UNL     1     -24.860 -13.025  20.264  0.00  0.00    +0.144 HD
ENDROOT
BRANCH   5  12
ATOM     12  N   UNL     1     -27.016 -14.605  20.605  0.00  0.00    +0.061 N 
ATOM     13  O   UNL     1     -25.762 -15.062  20.269  0.00  0.00    -0.126 OA
ATOM     14  O   UNL     1     -27.564 -15.053  21.634  0.00  0.00    -0.126 OA
ENDBRANCH   5  12
BRANCH   1  15
ATOM     15  C   UNL     1     -30.708 -10.110  17.613  0.00  0.00    +0.073 C 
BRANCH  15  17
ATOM     16  C   UNL     1     -32.052  -9.589  19.728  0.00  0.00    +0.006 C 
ATOM     17  C   UNL     1     -31.257  -9.008  18.559  0.00  0.00    +0.019 C 
ENDBRANCH  15  17
BRANCH  15  18
ATOM     18  C   UNL     1     -30.994  -9.799  16.125  0.00  0.00    +0.019 C 
ATOM     19  C   UNL     1     -31.557 -10.995  15.358  0.00  0.00    +0.006 C 
ENDBRANCH  15  18
ENDBRANCH   1  15
TORSDOF 4
ENDMDL
MODEL 6
REMARK VINA RESULT:    -3.276      1.855      2.574
REMARK INTER + INTRA:          -4.695
REMARK INTER:                  -4.207
REMARK INTRA:                  -0.488
REMARK UNBOUND:                -0.652
REMARK  Name = 
REMARK  6 active torsions:
REMARK  status: ('A' for Active; 'I' for Inactive)
REMARK    1  A    between atoms: C_1  and  C_2
REMARK    2  A    between atoms: C_2  and  C_3
REMARK    3  A    between atoms: C_3  and  C_4
REMARK    4  A    between atoms: C_3  and  N_6
REMARK    5  A    between atoms: C_4  and  C_5
REMARK    6  A    between atoms: C_10  and  N_14
REMARK                            x       y       z     vdW  Elec       q    Type
REMARK                         _______ _______ _______ _____ _____    ______ ____
ROOT
ATOM      1  N   UNL     1     -32.195 -10.787  17.662  0.00  0.00    -0.311 N 
ATOM      2  C   UNL     1     -30.847 -11.154  17.985  0.00  0.00    +0.217 A 
ATOM      3  N   UNL     1     -29.822 -10.289  17.767  0.00  0.00    -0.221 NA
ATOM      4  C   UNL     1     -28.544 -10.626  18.069  0.00  0.00    +0.150 A 
ATOM      5  C   UNL     1     -28.255 -11.879  18.627  0.00  0.00    +0.184 A 
ATOM      6  C   UNL     1     -29.328 -12.775  18.821  0.00  0.00    +0.152 A 
ATOM      7  N   UNL     1     -29.123 -14.111  19.291  0.00  0.00    -0.341 N 
ATOM      8  N   UNL     1     -30.591 -12.383  18.502  0.00  0.00    -0.198 NA
ATOM      9  H   UNL     1     -32.953 -11.478  17.867  0.00  0.00    +0.149 HD
ATOM     10  H   UNL     1     -29.947 -14.719  19.496  0.00  0.00    +0.144 HD
ATOM     11  H   UNL     1     -28.178 -14.549  19.325  0.00  0.00    +0.144 HD
ENDROOT
BRANCH   5  12
ATOM     12  N   UNL     1     -26.905 -12.196  19.004  0.00  0.00    +0.061 N 
ATOM     13  O   UNL     1     -26.601 -13.456  19.465  0.00  0.00    -0.126 OA
ATOM     14  O   UNL     1     -25.971 -11.418  18.719  0.00  0.00    -0.126 OA
ENDBRANCH   5  12
BRANCH   1  15
ATOM     15  C   UNL     1     -32.540  -9.477  17.096  0.00  0.00    +0.073 C 
BRANCH  15  17
ATOM     16  C   UNL     1     -34.288  -8.556  15.468  0.00  0.00    +0.006 C 
ATOM     17  C   UNL     1     -33.279  -9.671  15.743  0.00  0.00    +0.019 C 
ENDBRANCH  15  17
BRANCH  15  18
ATOM     18  C   UNL     1     -33.389  -8.684  18.118  0.00  0.00    +0.019 C 
ATOM     19  C   UNL     1     -33.921  -9.551  19.258  0.00  0.00    +0.006 C 
ENDBRANCH  15  18
ENDBRANCH   1  15
TORSDOF 4
ENDMDL
MODEL 7
REMARK VINA RESULT:    -1.512      2.904      3.895
REMARK INTER + INTRA:          -2.518
REMARK INTER:                  -1.884
REMARK INTRA:                  -0.634
REMARK UNBOUND:                -0.652
REMARK  Name = 
REMARK  6 active torsions:
REMARK  status: ('A' for Active; 'I' for Inactive)
REMARK    1  A    between atoms: C_1  and  C_2
REMARK    2  A    between atoms: C_2  and  C_3
REMARK    3  A    between atoms: C_3  and  C_4
REMARK    4  A    between atoms: C_3  and  N_6
REMARK    5  A    between atoms: C_4  and  C_5
REMARK    6  A    between atoms: C_10  and  N_14
REMARK                            x       y       z     vdW  Elec       q    Type
REMARK                         _______ _______ _______ _____ _____    ______ ____
ROOT
ATOM      1  N   UNL     1     -29.079 -14.237  16.725  0.00  0.00    -0.311 N 
ATOM      2  C   UNL     1     -29.233 -13.140  17.634  0.00  0.00    +0.217 A 
ATOM      3  N   UNL     1     -29.617 -11.916  17.185  0.00  0.00    -0.221 NA
ATOM      4  C   UNL     1     -29.766 -10.871  18.037  0.00  0.00    +0.150 A 
ATOM      5  C   UNL     1     -29.537 -11.039  19.410  0.00  0.00    +0.184 A 
ATOM      6  C   UNL     1     -29.113 -12.310  19.855  0.00  0.00    +0.152 A 
ATOM      7  N   UNL     1     -28.758 -12.555  21.219  0.00  0.00    -0.341 N 
ATOM      8  N   UNL     1     -28.981 -13.322  18.956  0.00  0.00    -0.198 NA
ATOM      9  H   UNL     1     -28.803 -15.165  17.120  0.00  0.00    +0.149 HD
ATOM     10  H   UNL     1     -28.523 -13.524  21.527  0.00  0.00    +0.144 HD
ATOM     11  H   UNL     1     -28.605 -11.781  21.901  0.00  0.00    +0.144 HD
ENDROOT
BRANCH   5  12
ATOM     12  N   UNL     1     -29.764  -9.942  20.309  0.00  0.00    +0.061 N 
ATOM     13  O   UNL     1     -30.002  -8.683  19.808  0.00  0.00    -0.126 OA
ATOM     14  O   UNL     1     -29.959 -10.152  21.524  0.00  0.00    -0.126 OA
ENDBRANCH   5  12
BRANCH   1  15
ATOM     15  C   UNL     1     -29.330 -14.107  15.283  0.00  0.00    +0.073 C 
BRANCH  15  17
ATOM     16  C   UNL     1     -28.400 -14.786  12.997  0.00  0.00    +0.006 C 
ATOM     17  C   UNL     1     -28.388 -15.063  14.501  0.00  0.00    +0.019 C 
ENDBRANCH  15  17
BRANCH  15  18
ATOM     18  C   UNL     1     -30.823 -14.390  14.995  0.00  0.00    +0.019 C 
ATOM     19  C   UNL     1     -31.564 -13.183  14.422  0.00  0.00    +0.006 C 
ENDBRANCH  15  18
ENDBRANCH   1  15
TORSDOF 4
ENDMDL
MODEL 8
REMARK VINA RESULT:    -0.689      2.755      3.776
REMARK INTER + INTRA:          -1.503
REMARK INTER:                  -0.859
REMARK INTRA:                  -0.644
REMARK UNBOUND:                -0.652
REMARK  Name = 
REMARK  6 active torsions:
REMARK  status: ('A' for Active; 'I' for Inactive)
REMARK    1  A    between atoms: C_1  and  C_2
REMARK    2  A    between atoms: C_2  and  C_3
REMARK    3  A    between atoms: C_3  and  C_4
REMARK    4  A    between atoms: C_3  and  N_6
REMARK    5  A    between atoms: C_4  and  C_5
REMARK    6  A    between atoms: C_10  and  N_14
REMARK                            x       y       z     vdW  Elec       q    Type
REMARK                         _______ _______ _______ _____ _____    ______ ____
ROOT
ATOM      1  N   UNL     1     -31.076 -14.074  15.364  0.00  0.00    -0.311 N 
ATOM      2  C   UNL     1     -30.698 -13.363  16.550  0.00  0.00    +0.217 A 
ATOM      3  N   UNL     1     -30.105 -12.143  16.467  0.00  0.00    -0.221 NA
ATOM      4  C   UNL     1     -29.742 -11.462  17.583  0.00  0.00    +0.150 A 
ATOM      5  C   UNL     1     -29.987 -12.002  18.853  0.00  0.00    +0.184 A 
ATOM      6  C   UNL     1     -30.579 -13.282  18.920  0.00  0.00    +0.152 A 
ATOM      7  N   UNL     1     -30.778 -13.960  20.164  0.00  0.00    -0.341 N 
ATOM      8  N   UNL     1     -30.923 -13.919  17.768  0.00  0.00    -0.198 NA
ATOM      9  H   UNL     1     -31.549 -14.999  15.479  0.00  0.00    +0.149 HD
ATOM     10  H   UNL     1     -31.288 -14.870  20.181  0.00  0.00    +0.144 HD
ATOM     11  H   UNL     1     -30.326 -13.642  21.048  0.00  0.00    +0.144 HD
ENDROOT
BRANCH   5  12
ATOM     12  N   UNL     1     -29.659 -11.240  20.026  0.00  0.00    +0.061 N 
ATOM     13  O   UNL     1     -29.121 -11.870  21.124  0.00  0.00    -0.126 OA
ATOM     14  O   UNL     1     -29.655  -9.992  19.986  0.00  0.00    -0.126 OA
ENDBRANCH   5  12
BRANCH   1  15
ATOM     15  C   UNL     1     -30.856 -13.532  14.017  0.00  0.00    +0.073 C 
BRANCH  15  17
ATOM     16  C   UNL     1     -28.666 -14.733  13.458  0.00  0.00    +0.006 C 
ATOM     17  C   UNL     1     -30.154 -14.599  13.134  0.00  0.00    +0.019 C 
ENDBRANCH  15  17
BRANCH  15  18
ATOM     18  C   UNL     1     -32.209 -13.077  13.420  0.00  0.00    +0.019 C 
ATOM     19  C   UNL     1     -32.355 -13.414  11.937  0.00  0.00    +0.006 C 
ENDBRANCH  15  18
ENDBRANCH   1  15
TORSDOF 4
ENDMDL
