MODEL 1
REMARK VINA RESULT:    -5.357      0.000      0.000
REMARK INTER + INTRA:          -8.231
REMARK INTER:                  -7.393
REMARK INTRA:                  -0.838
REMARK UNBOUND:                -0.838
REMARK  Name = 
REMARK  8 active torsions:
REMARK  status: ('A' for Active; 'I' for Inactive)
REMARK    1  A    between atoms: C_1  and  C_2
REMARK    2  A    between atoms: C_2  and  C_4
REMARK    3  A    between atoms: C_7  and  N_10
REMARK    4  A    between atoms: C_11  and  C_13
REMARK    5  A    between atoms: C_13  and  C_14
REMARK    6  A    between atoms: C_14  and  C_15
REMARK    7  A    between atoms: C_14  and  C_18
REMARK    8  A    between atoms: C_15  and  O_17
REMARK                            x       y       z     vdW  Elec       q    Type
REMARK                         _______ _______ _______ _____ _____    ______ ____
ROOT
ATOM      1  N   UNL     1     -29.435 -10.792  17.165  0.00  0.00    -0.285 N 
ATOM      2  C   UNL     1     -30.499  -9.846  17.351  0.00  0.00    +0.218 C 
ATOM      3  O   UNL     1     -30.748  -9.380  18.496  0.00  0.00    -0.275 OA
ATOM      4  H   UNL     1     -28.999 -10.854  16.217  0.00  0.00    +0.155 HD
ENDROOT
BRANCH   1   8
ATOM      5  C   UNL     1     -28.066 -13.351  20.290  0.00  0.00    +0.017 A 
ATOM      6  C   UNL     1     -29.437 -13.241  19.988  0.00  0.00    +0.013 A 
ATOM      7  C   UNL     1     -29.873 -12.405  18.955  0.00  0.00    +0.024 A 
ATOM      8  C   UNL     1     -28.953 -11.675  18.192  0.00  0.00    +0.033 A 
ATOM      9  C   UNL     1     -27.586 -11.767  18.500  0.00  0.00    +0.024 A 
ATOM     10  C   UNL     1     -27.147 -12.599  19.533  0.00  0.00    +0.013 A 
BRANCH   5  12
ATOM     11  C   UNL     1     -26.127 -14.355  21.723  0.00  0.00    +0.091 C 
ATOM     12  C   UNL     1     -27.583 -14.232  21.387  0.00  0.00    +0.160 C 
ATOM     13  O   UNL     1     -28.411 -14.902  22.062  0.00  0.00    -0.292 OA
ENDBRANCH   5  12
ENDBRANCH   1   8
BRANCH   2  14
ATOM     14  C   UNL     1     -31.346  -9.434  16.183  0.00  0.00    +0.115 C 
BRANCH  14  15
ATOM     15  C   UNL     1     -32.693 -10.187  16.182  0.00  0.00    +0.136 C 
BRANCH  15  16
ATOM     16  C   UNL     1     -32.908 -10.957  14.891  0.00  0.00    -0.033 A 
ATOM     17  C   UNL     1     -31.892 -11.773  14.354  0.00  0.00    +0.004 A 
ATOM     18  C   UNL     1     -32.126 -12.524  13.199  0.00  0.00    +0.000 A 
ATOM     19  C   UNL     1     -33.371 -12.472  12.569  0.00  0.00    +0.000 A 
ATOM     20  C   UNL     1     -34.386 -11.668  13.093  0.00  0.00    +0.000 A 
ATOM     21  C   UNL     1     -34.158 -10.913  14.246  0.00  0.00    +0.004 A 
ENDBRANCH  15  16
BRANCH  15  22
ATOM     22  C   UNL     1     -33.846  -9.251  16.431  0.00  0.00    +0.313 C 
ATOM     23  O   UNL     1     -34.775  -9.597  17.209  0.00  0.00    -0.250 OA
BRANCH  22  24
ATOM     24  O   UNL     1     -33.920  -8.027  15.771  0.00  0.00    -0.480 OA
ATOM     25  H   UNL     1     -33.712  -7.162  16.255  0.00  0.00    +0.295 HD
ENDBRANCH  22  24
ENDBRANCH  15  22
ENDBRANCH  14  15
ENDBRANCH   2  14
TORSDOF 7
ENDMDL
MODEL 2
REMARK VINA RESULT:    -5.120      1.928      7.108
REMARK INTER + INTRA:          -7.903
REMARK INTER:                  -6.390
REMARK INTRA:                  -1.514
REMARK UNBOUND:                -0.838
REMARK  Name = 
REMARK  8 active torsions:
REMARK  status: ('A' for Active; 'I' for Inactive)
REMARK    1  A    between atoms: C_1  and  C_2
REMARK    2  A    between atoms: C_2  and  C_4
REMARK    3  A    between atoms: C_7  and  N_10
REMARK    4  A    between atoms: C_11  and  C_13
REMARK    5  A    between atoms: C_13  and  C_14
REMARK    6  A    between atoms: C_14  and  C_15
REMARK    7  A    between atoms: C_14  and  C_18
REMARK    8  A    between atoms: C_15  and  O_17
REMARK                            x       y       z     vdW  Elec       q    Type
REMARK                         _______ _______ _______ _____ _____    ______ ____
ROOT
ATOM      1  N   UNL     1     -31.098 -10.280  18.597  0.00  0.00    -0.285 N 
ATOM      2  C   UNL     1     -29.677 -10.468  18.517  0.00  0.00    +0.218 C 
ATOM      3  O   UNL     1     -29.015  -9.947  17.580  0.00  0.00    -0.275 OA
ATOM      4  H   UNL     1     -31.548 -10.362  19.537  0.00  0.00    +0.155 HD
ENDROOT
BRANCH   1   8
ATOM      5  C   UNL     1     -33.687  -9.529  15.292  0.00  0.00    +0.017 A 
ATOM      6  C   UNL     1     -33.891  -8.897  16.535  0.00  0.00    +0.013 A 
ATOM      7  C   UNL     1     -33.030  -9.145  17.608  0.00  0.00    +0.024 A 
ATOM      8  C   UNL     1     -31.941 -10.013  17.463  0.00  0.00    +0.033 A 
ATOM      9  C   UNL     1     -31.743 -10.660  16.232  0.00  0.00    +0.024 A 
ATOM     10  C   UNL     1     -32.603 -10.416  15.158  0.00  0.00    +0.013 A 
BRANCH   5  12
ATOM     11  C   UNL     1     -35.062 -10.389  13.246  0.00  0.00    +0.091 C 
ATOM     12  C   UNL     1     -34.594  -9.280  14.139  0.00  0.00    +0.160 C 
ATOM     13  O   UNL     1     -34.988  -8.107  13.894  0.00  0.00    -0.292 OA
ENDBRANCH   5  12
ENDBRANCH   1   8
BRANCH   2  14
ATOM     14  C   UNL     1     -28.977 -11.319  19.536  0.00  0.00    +0.115 C 
BRANCH  14  15
ATOM     15  C   UNL     1     -28.308 -12.540  18.872  0.00  0.00    +0.136 C 
BRANCH  15  16
ATOM     16  C   UNL     1     -29.261 -13.268  17.942  0.00  0.00    -0.033 A 
ATOM     17  C   UNL     1     -30.525 -13.702  18.391  0.00  0.00    +0.004 A 
ATOM     18  C   UNL     1     -31.417 -14.316  17.507  0.00  0.00    +0.000 A 
ATOM     19  C   UNL     1     -31.062 -14.500  16.169  0.00  0.00    +0.000 A 
ATOM     20  C   UNL     1     -29.813 -14.074  15.713  0.00  0.00    +0.000 A 
ATOM     21  C   UNL     1     -28.916 -13.462  16.592  0.00  0.00    +0.004 A 
ENDBRANCH  15  16
BRANCH  15  22
ATOM     22  C   UNL     1     -27.754 -13.490  19.901  0.00  0.00    +0.313 C 
ATOM     23  O   UNL     1     -28.204 -13.468  21.078  0.00  0.00    -0.250 OA
BRANCH  22  24
ATOM     24  O   UNL     1     -26.715 -14.360  19.576  0.00  0.00    -0.480 OA
ATOM     25  H   UNL     1     -26.887 -15.350  19.451  0.00  0.00    +0.295 HD
ENDBRANCH  22  24
ENDBRANCH  15  22
ENDBRANCH  14  15
ENDBRANCH   2  14
TORSDOF 7
ENDMDL
MODEL 3
REMARK VINA RESULT:    -5.053      2.870      6.892
REMARK INTER + INTRA:          -7.811
REMARK INTER:                  -7.099
REMARK INTRA:                  -0.712
REMARK UNBOUND:                -0.838
REMARK  Name = 
REMARK  8 active torsions:
REMARK  status: ('A' for Active; 'I' for Inactive)
REMARK    1  A    between atoms: C_1  and  C_2
REMARK    2  A    between atoms: C_2  and  C_4
REMARK    3  A    between atoms: C_7  and  N_10
REMARK    4  A    between atoms: C_11  and  C_13
REMARK    5  A    between atoms: C_13  and  C_14
REMARK    6  A    between atoms: C_14  and  C_15
REMARK    7  A    between atoms: C_14  and  C_18
REMARK    8  A    between atoms: C_15  and  O_17
REMARK                            x       y       z     vdW  Elec       q    Type
REMARK                         _______ _______ _______ _____ _____    ______ ____
ROOT
ATOM      1  N   UNL     1     -29.871 -14.242  18.272  0.00  0.00    -0.285 N 
ATOM      2  C   UNL     1     -30.416 -13.589  19.429  0.00  0.00    +0.218 C 
ATOM      3  O   UNL     1     -31.633 -13.263  19.466  0.00  0.00    -0.275 OA
ATOM      4  H   UNL     1     -29.023 -14.839  18.404  0.00  0.00    +0.155 HD
ENDROOT
BRANCH   1   8
ATOM      5  C   UNL     1     -31.353 -13.784  14.300  0.00  0.00    +0.017 A 
ATOM      6  C   UNL     1     -30.191 -14.535  14.560  0.00  0.00    +0.013 A 
ATOM      7  C   UNL     1     -29.720 -14.685  15.868  0.00  0.00    +0.024 A 
ATOM      8  C   UNL     1     -30.404 -14.105  16.944  0.00  0.00    +0.033 A 
ATOM      9  C   UNL     1     -31.553 -13.340  16.688  0.00  0.00    +0.024 A 
ATOM     10  C   UNL     1     -32.025 -13.185  15.383  0.00  0.00    +0.013 A 
BRANCH   5  12
ATOM     11  C   UNL     1     -33.051 -12.740  12.612  0.00  0.00    +0.091 C 
ATOM     12  C   UNL     1     -31.868 -13.609  12.915  0.00  0.00    +0.160 C 
ATOM     13  O   UNL     1     -31.303 -14.206  11.957  0.00  0.00    -0.292 OA
ENDBRANCH   5  12
ENDBRANCH   1   8
BRANCH   2  14
ATOM     14  C   UNL     1     -29.525 -13.260  20.591  0.00  0.00    +0.115 C 
BRANCH  14  15
ATOM     15  C   UNL     1     -28.599 -12.071  20.258  0.00  0.00    +0.136 C 
BRANCH  15  16
ATOM     16  C   UNL     1     -29.319 -11.003  19.454  0.00  0.00    -0.033 A 
ATOM     17  C   UNL     1     -29.108 -10.872  18.067  0.00  0.00    +0.004 A 
ATOM     18  C   UNL     1     -29.825  -9.926  17.329  0.00  0.00    +0.000 A 
ATOM     19  C   UNL     1     -30.760  -9.105  17.963  0.00  0.00    +0.000 A 
ATOM     20  C   UNL     1     -30.979  -9.227  19.337  0.00  0.00    +0.000 A 
ATOM     21  C   UNL     1     -30.264 -10.169  20.080  0.00  0.00    +0.004 A 
ENDBRANCH  15  16
BRANCH  15  22
ATOM     22  C   UNL     1     -27.361 -12.526  19.531  0.00  0.00    +0.313 C 
ATOM     23  O   UNL     1     -26.465 -11.689  19.239  0.00  0.00    -0.250 OA
BRANCH  22  24
ATOM     24  O   UNL     1     -27.219 -13.854  19.137  0.00  0.00    -0.480 OA
ATOM     25  H   UNL     1     -26.321 -14.214  18.836  0.00  0.00    +0.295 HD
ENDBRANCH  22  24
ENDBRANCH  15  22
ENDBRANCH  14  15
ENDBRANCH   2  14
TORSDOF 7
ENDMDL
MODEL 4
REMARK VINA RESULT:    -5.045      2.130      7.493
REMARK INTER + INTRA:          -7.800
REMARK INTER:                  -6.750
REMARK INTRA:                  -1.050
REMARK UNBOUND:                -0.838
REMARK  Name = 
REMARK  8 active torsions:
REMARK  status: ('A' for Active; 'I' for Inactive)
REMARK    1  A    between atoms: C_1  and  C_2
REMARK    2  A    between atoms: C_2  and  C_4
REMARK    3  A    between atoms: C_7  and  N_10
REMARK    4  A    between atoms: C_11  and  C_13
REMARK    5  A    between atoms: C_13  and  C_14
REMARK    6  A    between atoms: C_14  and  C_15
REMARK    7  A    between atoms: C_14  and  C_18
REMARK    8  A    between atoms: C_15  and  O_17
REMARK                            x       y       z     vdW  Elec       q    Type
REMARK                         _______ _______ _______ _____ _____    ______ ____
ROOT
ATOM      1  N   UNL     1     -29.369 -11.478  17.577  0.00  0.00    -0.285 N 
ATOM      2  C   UNL     1     -28.453 -12.545  17.865  0.00  0.00    +0.218 C 
ATOM      3  O   UNL     1     -28.169 -13.400  16.983  0.00  0.00    -0.275 OA
ATOM      4  H   UNL     1     -29.285 -10.600  18.139  0.00  0.00    +0.155 HD
ENDROOT
BRANCH   1   8
ATOM      5  C   UNL     1     -32.520 -11.651  14.709  0.00  0.00    +0.017 A 
ATOM      6  C   UNL     1     -32.094 -10.422  15.249  0.00  0.00    +0.013 A 
ATOM      7  C   UNL     1     -31.054 -10.377  16.182  0.00  0.00    +0.024 A 
ATOM      8  C   UNL     1     -30.406 -11.552  16.585  0.00  0.00    +0.033 A 
ATOM      9  C   UNL     1     -30.839 -12.782  16.064  0.00  0.00    +0.024 A 
ATOM     10  C   UNL     1     -31.880 -12.831  15.134  0.00  0.00    +0.013 A 
BRANCH   5  12
ATOM     11  C   UNL     1     -33.640 -12.730  12.612  0.00  0.00    +0.091 C 
ATOM     12  C   UNL     1     -33.628 -11.719  13.718  0.00  0.00    +0.160 C 
ATOM     13  O   UNL     1     -34.591 -10.908  13.799  0.00  0.00    -0.292 OA
ENDBRANCH   5  12
ENDBRANCH   1   8
BRANCH   2  14
ATOM     14  C   UNL     1     -27.853 -12.668  19.235  0.00  0.00    +0.115 C 
BRANCH  14  15
ATOM     15  C   UNL     1     -28.846 -13.327  20.216  0.00  0.00    +0.136 C 
BRANCH  15  16
ATOM     16  C   UNL     1     -29.977 -12.386  20.590  0.00  0.00    -0.033 A 
ATOM     17  C   UNL     1     -29.723 -11.177  21.269  0.00  0.00    +0.004 A 
ATOM     18  C   UNL     1     -30.767 -10.292  21.551  0.00  0.00    +0.000 A 
ATOM     19  C   UNL     1     -32.072 -10.599  21.159  0.00  0.00    +0.000 A 
ATOM     20  C   UNL     1     -32.335 -11.793  20.485  0.00  0.00    +0.000 A 
ATOM     21  C   UNL     1     -31.297 -12.683  20.202  0.00  0.00    +0.004 A 
ENDBRANCH  15  16
BRANCH  15  22
ATOM     22  C   UNL     1     -28.147 -13.821  21.455  0.00  0.00    +0.313 C 
ATOM     23  O   UNL     1     -27.170 -13.175  21.922  0.00  0.00    -0.250 OA
BRANCH  22  24
ATOM     24  O   UNL     1     -28.538 -15.012  22.062  0.00  0.00    -0.480 OA
ATOM     25  H   UNL     1     -28.968 -15.011  22.979  0.00  0.00    +0.295 HD
ENDBRANCH  22  24
ENDBRANCH  15  22
ENDBRANCH  14  15
ENDBRANCH   2  14
TORSDOF 7
ENDMDL
MODEL 5
REMARK VINA RESULT:    -4.864      2.315      7.689
REMARK INTER + INTRA:          -7.550
REMARK INTER:                  -7.261
REMARK INTRA:                  -0.289
REMARK UNBOUND:                -0.838
REMARK  Name = 
REMARK  8 active torsions:
REMARK  status: ('A' for Active; 'I' for Inactive)
REMARK    1  A    between atoms: C_1  and  C_2
REMARK    2  A    between atoms: C_2  and  C_4
REMARK    3  A    between atoms: C_7  and  N_10
REMARK    4  A    between atoms: C_11  and  C_13
REMARK    5  A    between atoms: C_13  and  C_14
REMARK    6  A    between atoms: C_14  and  C_15
REMARK    7  A    between atoms: C_14  and  C_18
REMARK    8  A    between atoms: C_15  and  O_17
REMARK                            x       y       z     vdW  Elec       q    Type
REMARK                         _______ _______ _______ _____ _____    ______ ____
ROOT
ATOM      1  N   UNL     1     -30.602 -10.778  17.777  0.00  0.00    -0.285 N 
ATOM      2  C   UNL     1     -29.306 -11.035  18.339  0.00  0.00    +0.218 C 
ATOM      3  O   UNL     1     -28.318 -11.265  17.591  0.00  0.00    -0.275 OA
ATOM      4  H   UNL     1     -31.277 -10.219  18.346  0.00  0.00    +0.155 HD
ENDROOT
BRANCH   1   8
ATOM      5  C   UNL     1     -31.994 -12.205  14.007  0.00  0.00    +0.017 A 
ATOM      6  C   UNL     1     -32.335 -10.919  14.469  0.00  0.00    +0.013 A 
ATOM      7  C   UNL     1     -31.865 -10.459  15.703  0.00  0.00    +0.024 A 
ATOM      8  C   UNL     1     -31.034 -11.262  16.494  0.00  0.00    +0.033 A 
ATOM      9  C   UNL     1     -30.706 -12.552  16.047  0.00  0.00    +0.024 A 
ATOM     10  C   UNL     1     -31.176 -13.016  14.816  0.00  0.00    +0.013 A 
BRANCH   5  12
ATOM     11  C   UNL     1     -33.844 -12.358  12.170  0.00  0.00    +0.091 C 
ATOM     12  C   UNL     1     -32.488 -12.714  12.699  0.00  0.00    +0.160 C 
ATOM     13  O   UNL     1     -31.753 -13.468  12.003  0.00  0.00    -0.292 OA
ENDBRANCH   5  12
ENDBRANCH   1   8
BRANCH   2  14
ATOM     14  C   UNL     1     -29.130 -11.065  19.829  0.00  0.00    +0.115 C 
BRANCH  14  15
ATOM     15  C   UNL     1     -29.370 -12.485  20.386  0.00  0.00    +0.136 C 
BRANCH  15  16
ATOM     16  C   UNL     1     -28.065 -13.205  20.674  0.00  0.00    -0.033 A 
ATOM     17  C   UNL     1     -26.905 -12.936  19.920  0.00  0.00    +0.004 A 
ATOM     18  C   UNL     1     -25.696 -13.561  20.237  0.00  0.00    +0.000 A 
ATOM     19  C   UNL     1     -25.628 -14.456  21.307  0.00  0.00    +0.000 A 
ATOM     20  C   UNL     1     -26.771 -14.729  22.062  0.00  0.00    +0.000 A 
ATOM     21  C   UNL     1     -27.983 -14.109  21.749  0.00  0.00    +0.004 A 
ENDBRANCH  15  16
BRANCH  15  22
ATOM     22  C   UNL     1     -30.224 -13.303  19.454  0.00  0.00    +0.313 C 
ATOM     23  O   UNL     1     -31.464 -13.088  19.393  0.00  0.00    -0.250 OA
BRANCH  22  24
ATOM     24  O   UNL     1     -29.663 -14.327  18.694  0.00  0.00    -0.480 OA
ATOM     25  H   UNL     1     -29.840 -15.298  18.919  0.00  0.00    +0.295 HD
ENDBRANCH  22  24
ENDBRANCH  15  22
ENDBRANCH  14  15
ENDBRANCH   2  14
TORSDOF 7
ENDMDL
MODEL 6
REMARK VINA RESULT:    -4.842      1.715      2.366
REMARK INTER + INTRA:          -7.520
REMARK INTER:                  -6.222
REMARK INTRA:                  -1.297
REMARK UNBOUND:                -0.838
REMARK  Name = 
REMARK  8 active torsions:
REMARK  status: ('A' for Active; 'I' for Inactive)
REMARK    1  A    between atoms: C_1  and  C_2
REMARK    2  A    between atoms: C_2  and  C_4
REMARK    3  A    between atoms: C_7  and  N_10
REMARK    4  A    between atoms: C_11  and  C_13
REMARK    5  A    between atoms: C_13  and  C_14
REMARK    6  A    between atoms: C_14  and  C_15
REMARK    7  A    between atoms: C_14  and  C_18
REMARK    8  A    between atoms: C_15  and  O_17
REMARK                            x       y       z     vdW  Elec       q    Type
REMARK                         _______ _______ _______ _____ _____    ______ ____
ROOT
ATOM      1  N   UNL     1     -30.131 -10.437  18.115  0.00  0.00    -0.285 N 
ATOM      2  C   UNL     1     -31.520 -10.121  18.297  0.00  0.00    +0.218 C 
ATOM      3  O   UNL     1     -32.059 -10.231  19.431  0.00  0.00    -0.275 OA
ATOM      4  H   UNL     1     -29.628  -9.980  17.321  0.00  0.00    +0.155 HD
ENDROOT
BRANCH   1   8
ATOM      5  C   UNL     1     -27.971 -13.253  20.479  0.00  0.00    +0.017 A 
ATOM      6  C   UNL     1     -27.481 -12.824  19.230  0.00  0.00    +0.013 A 
ATOM      7  C   UNL     1     -28.195 -11.894  18.468  0.00  0.00    +0.024 A 
ATOM      8  C   UNL     1     -29.400 -11.360  18.940  0.00  0.00    +0.033 A 
ATOM      9  C   UNL     1     -29.902 -11.797  20.176  0.00  0.00    +0.024 A 
ATOM     10  C   UNL     1     -29.194 -12.729  20.939  0.00  0.00    +0.013 A 
BRANCH   5  12
ATOM     11  C   UNL     1     -25.734 -14.351  21.260  0.00  0.00    +0.091 C 
ATOM     12  C   UNL     1     -27.228 -14.245  21.302  0.00  0.00    +0.160 C 
ATOM     13  O   UNL     1     -27.862 -15.028  22.062  0.00  0.00    -0.292 OA
ENDBRANCH   5  12
ENDBRANCH   1   8
BRANCH   2  14
ATOM     14  C   UNL     1     -32.349  -9.690  17.122  0.00  0.00    +0.115 C 
BRANCH  14  15
ATOM     15  C   UNL     1     -33.182 -10.867  16.571  0.00  0.00    +0.136 C 
BRANCH  15  16
ATOM     16  C   UNL     1     -32.326 -12.095  16.320  0.00  0.00    -0.033 A 
ATOM     17  C   UNL     1     -31.404 -12.132  15.255  0.00  0.00    +0.004 A 
ATOM     18  C   UNL     1     -30.578 -13.245  15.073  0.00  0.00    +0.000 A 
ATOM     19  C   UNL     1     -30.659 -14.329  15.950  0.00  0.00    +0.000 A 
ATOM     20  C   UNL     1     -31.568 -14.302  17.010  0.00  0.00    +0.000 A 
ATOM     21  C   UNL     1     -32.398 -13.194  17.195  0.00  0.00    +0.004 A 
ENDBRANCH  15  16
BRANCH  15  22
ATOM     22  C   UNL     1     -33.919 -10.478  15.317  0.00  0.00    +0.313 C 
ATOM     23  O   UNL     1     -34.593 -11.342  14.695  0.00  0.00    -0.250 OA
BRANCH  22  24
ATOM     24  O   UNL     1     -33.824  -9.184  14.811  0.00  0.00    -0.480 OA
ATOM     25  H   UNL     1     -33.180  -8.514  15.214  0.00  0.00    +0.295 HD
ENDBRANCH  22  24
ENDBRANCH  15  22
ENDBRANCH  14  15
ENDBRANCH   2  14
TORSDOF 7
ENDMDL
MODEL 7
REMARK VINA RESULT:    -4.607      3.411      5.783
REMARK INTER + INTRA:          -7.195
REMARK INTER:                  -6.267
REMARK INTRA:                  -0.928
REMARK UNBOUND:                -0.838
REMARK  Name = 
REMARK  8 active torsions:
REMARK  status: ('A' for Active; 'I' for Inactive)
REMARK    1  A    between atoms: C_1  and  C_2
REMARK    2  A    between atoms: C_2  and  C_4
REMARK    3  A    between atoms: C_7  and  N_10
REMARK    4  A    between atoms: C_11  and  C_13
REMARK    5  A    between atoms: C_13  and  C_14
REMARK    6  A    between atoms: C_14  and  C_15
REMARK    7  A    between atoms: C_14  and  C_18
REMARK    8  A    between atoms: C_15  and  O_17
REMARK                            x       y       z     vdW  Elec       q    Type
REMARK                         _______ _______ _______ _____ _____    ______ ____
ROOT
ATOM      1  N   UNL     1     -32.125 -10.770  17.559  0.00  0.00    -0.285 N 
ATOM      2  C   UNL     1     -32.392 -12.104  18.020  0.00  0.00    +0.218 C 
ATOM      3  O   UNL     1     -32.938 -12.296  19.140  0.00  0.00    -0.275 OA
ATOM      4  H   UNL     1     -32.057 -10.617  16.527  0.00  0.00    +0.155 HD
ENDROOT
BRANCH   1   8
ATOM      5  C   UNL     1     -31.518  -7.499  20.226  0.00  0.00    +0.017 A 
ATOM      6  C   UNL     1     -30.579  -8.544  20.132  0.00  0.00    +0.013 A 
ATOM      7  C   UNL     1     -30.785  -9.607  19.247  0.00  0.00    +0.024 A 
ATOM      8  C   UNL     1     -31.921  -9.643  18.428  0.00  0.00    +0.033 A 
ATOM      9  C   UNL     1     -32.869  -8.613  18.531  0.00  0.00    +0.024 A 
ATOM     10  C   UNL     1     -32.667  -7.551  19.416  0.00  0.00    +0.013 A 
BRANCH   5  12
ATOM     11  C   UNL     1     -29.950  -5.880  21.546  0.00  0.00    +0.091 C 
ATOM     12  C   UNL     1     -31.317  -6.361  21.164  0.00  0.00    +0.160 C 
ATOM     13  O   UNL     1     -32.319  -5.776  21.661  0.00  0.00    -0.292 OA
ENDBRANCH   5  12
ENDBRANCH   1   8
BRANCH   2  14
ATOM     14  C   UNL     1     -31.988 -13.280  17.181  0.00  0.00    +0.115 C 
BRANCH  14  15
ATOM     15  C   UNL     1     -30.600 -13.055  16.544  0.00  0.00    +0.136 C 
BRANCH  15  16
ATOM     16  C   UNL     1     -30.528 -13.619  15.136  0.00  0.00    -0.033 A 
ATOM     17  C   UNL     1     -31.379 -13.143  14.119  0.00  0.00    +0.004 A 
ATOM     18  C   UNL     1     -31.259 -13.627  12.813  0.00  0.00    +0.000 A 
ATOM     19  C   UNL     1     -30.290 -14.585  12.507  0.00  0.00    +0.000 A 
ATOM     20  C   UNL     1     -29.440 -15.062  13.507  0.00  0.00    +0.000 A 
ATOM     21  C   UNL     1     -29.557 -14.585  14.814  0.00  0.00    +0.004 A 
ENDBRANCH  15  16
BRANCH  15  22
ATOM     22  C   UNL     1     -29.504 -13.638  17.397  0.00  0.00    +0.313 C 
ATOM     23  O   UNL     1     -28.318 -13.238  17.249  0.00  0.00    -0.250 OA
BRANCH  22  24
ATOM     24  O   UNL     1     -29.781 -14.648  18.315  0.00  0.00    -0.480 OA
ATOM     25  H   UNL     1     -30.730 -14.828  18.619  0.00  0.00    +0.295 HD
ENDBRANCH  22  24
ENDBRANCH  15  22
ENDBRANCH  14  15
ENDBRANCH   2  14
TORSDOF 7
ENDMDL
MODEL 8
REMARK VINA RESULT:    -4.604      1.612      2.301
REMARK INTER + INTRA:          -7.191
REMARK INTER:                  -6.961
REMARK INTRA:                  -0.230
REMARK UNBOUND:                -0.838
REMARK  Name = 
REMARK  8 active torsions:
REMARK  status: ('A' for Active; 'I' for Inactive)
REMARK    1  A    between atoms: C_1  and  C_2
REMARK    2  A    between atoms: C_2  and  C_4
REMARK    3  A    between atoms: C_7  and  N_10
REMARK    4  A    between atoms: C_11  and  C_13
REMARK    5  A    between atoms: C_13  and  C_14
REMARK    6  A    between atoms: C_14  and  C_15
REMARK    7  A    between atoms: C_14  and  C_18
REMARK    8  A    between atoms: C_15  and  O_17
REMARK                            x       y       z     vdW  Elec       q    Type
REMARK                         _______ _______ _______ _____ _____    ______ ____
ROOT
ATOM      1  N   UNL     1     -30.688 -11.946  17.476  0.00  0.00    -0.285 N 
ATOM      2  C   UNL     1     -31.987 -11.645  18.010  0.00  0.00    +0.218 C 
ATOM      3  O   UNL     1     -32.109 -11.201  19.184  0.00  0.00    -0.275 OA
ATOM      4  H   UNL     1     -30.571 -11.921  16.438  0.00  0.00    +0.155 HD
ENDROOT
BRANCH   1   8
ATOM      5  C   UNL     1     -27.259 -13.042  19.761  0.00  0.00    +0.017 A 
ATOM      6  C   UNL     1     -27.170 -12.090  18.727  0.00  0.00    +0.013 A 
ATOM      7  C   UNL     1     -28.303 -11.733  17.991  0.00  0.00    +0.024 A 
ATOM      8  C   UNL     1     -29.550 -12.302  18.279  0.00  0.00    +0.033 A 
ATOM      9  C   UNL     1     -29.641 -13.265  19.297  0.00  0.00    +0.024 A 
ATOM     10  C   UNL     1     -28.510 -13.626  20.033  0.00  0.00    +0.013 A 
BRANCH   5  12
ATOM     11  C   UNL     1     -26.149 -14.423  21.680  0.00  0.00    +0.091 C 
ATOM     12  C   UNL     1     -26.063 -13.438  20.554  0.00  0.00    +0.160 C 
ATOM     13  O   UNL     1     -24.938 -12.937  20.281  0.00  0.00    -0.292 OA
ENDBRANCH   5  12
ENDBRANCH   1   8
BRANCH   2  14
ATOM     14  C   UNL     1     -33.212 -11.893  17.180  0.00  0.00    +0.115 C 
BRANCH  14  15
ATOM     15  C   UNL     1     -33.282 -10.914  15.989  0.00  0.00    +0.136 C 
BRANCH  15  16
ATOM     16  C   UNL     1     -33.181 -11.638  14.659  0.00  0.00    -0.033 A 
ATOM     17  C   UNL     1     -34.115 -11.401  13.630  0.00  0.00    +0.004 A 
ATOM     18  C   UNL     1     -33.974 -12.028  12.389  0.00  0.00    +0.000 A 
ATOM     19  C   UNL     1     -32.902 -12.892  12.158  0.00  0.00    +0.000 A 
ATOM     20  C   UNL     1     -31.969 -13.133  13.169  0.00  0.00    +0.000 A 
ATOM     21  C   UNL     1     -32.106 -12.512  14.412  0.00  0.00    +0.004 A 
ENDBRANCH  15  16
BRANCH  15  22
ATOM     22  C   UNL     1     -32.218  -9.853  16.089  0.00  0.00    +0.313 C 
ATOM     23  O   UNL     1     -31.090 -10.047  15.561  0.00  0.00    -0.250 OA
BRANCH  22  24
ATOM     24  O   UNL     1     -32.454  -8.678  16.799  0.00  0.00    -0.480 OA
ATOM     25  H   UNL     1     -32.960  -8.693  17.676  0.00  0.00    +0.295 HD
ENDBRANCH  22  24
ENDBRANCH  15  22
ENDBRANCH  14  15
ENDBRANCH   2  14
TORSDOF 7
ENDMDL
