MODEL 1
REMARK VINA RESULT:    -3.651      0.000      0.000
REMARK INTER + INTRA:          -5.122
REMARK INTER:                  -4.505
REMARK INTRA:                  -0.617
REMARK UNBOUND:                -0.617
REMARK  Name = 
REMARK  6 active torsions:
REMARK  status: ('A' for Active; 'I' for Inactive)
REMARK    1  A    between atoms: C_1  and  C_2
REMARK    2  A    between atoms: C_2  and  C_3
REMARK    3  A    between atoms: C_3  and  C_4
REMARK    4  A    between atoms: C_3  and  N_6
REMARK    5  A    between atoms: C_4  and  C_5
REMARK    6  A    between atoms: C_10  and  N_14
REMARK                            x       y       z     vdW  Elec       q    Type
REMARK                         _______ _______ _______ _____ _____    ______ ____
ROOT
ATOM      1  N   UNL     1     -30.671 -11.813  17.840  0.00  0.00    -0.311 N 
ATOM      2  C   UNL     1     -29.480 -12.211  18.531  0.00  0.00    +0.217 A 
ATOM      3  N   UNL     1     -28.261 -11.775  18.120  0.00  0.00    -0.221 NA
ATOM      4  C   UNL     1     -27.128 -12.145  18.767  0.00  0.00    +0.150 A 
ATOM      5  C   UNL     1     -27.195 -12.981  19.889  0.00  0.00    +0.184 A 
ATOM      6  C   UNL     1     -28.467 -13.447  20.287  0.00  0.00    +0.152 A 
ATOM      7  N   UNL     1     -28.630 -14.383  21.357  0.00  0.00    -0.341 N 
ATOM      8  N   UNL     1     -29.570 -13.042  19.601  0.00  0.00    -0.198 NA
ATOM      9  H   UNL     1     -31.588 -12.157  18.207  0.00  0.00    +0.149 HD
ATOM     10  H   UNL     1     -29.590 -14.645  21.673  0.00  0.00    +0.144 HD
ATOM     11  H   UNL     1     -27.827 -14.911  21.760  0.00  0.00    +0.144 HD
ENDROOT
BRANCH   5  12
ATOM     12  N   UNL     1     -25.993 -13.311  20.604  0.00  0.00    +0.061 N 
ATOM     13  O   UNL     1     -26.051 -13.585  21.952  0.00  0.00    -0.126 OA
ATOM     14  O   UNL     1     -24.939 -13.562  19.984  0.00  0.00    -0.126 OA
ENDBRANCH   5  12
BRANCH   1  15
ATOM     15  C   UNL     1     -30.644 -10.921  16.674  0.00  0.00    +0.073 C 
BRANCH  15  17
ATOM     16  C   UNL     1     -30.801 -12.950  15.121  0.00  0.00    +0.006 C 
ATOM     17  C   UNL     1     -31.392 -11.589  15.488  0.00  0.00    +0.019 C 
ENDBRANCH  15  17
BRANCH  15  18
ATOM     18  C   UNL     1     -31.258  -9.555  17.058  0.00  0.00    +0.019 C 
ATOM     19  C   UNL     1     -32.692  -9.380  16.560  0.00  0.00    +0.006 C 
ENDBRANCH  15  18
ENDBRANCH   1  15
TORSDOF 4
ENDMDL
MODEL 2
REMARK VINA RESULT:    -3.617      2.513      3.388
REMARK INTER + INTRA:          -5.080
REMARK INTER:                  -4.456
REMARK INTRA:                  -0.624
REMARK UNBOUND:                -0.617
REMARK  Name = 
REMARK  6 active torsions:
REMARK  status: ('A' for Active; 'I' for Inactive)
REMARK    1  A    between atoms: C_1  and  C_2
REMARK    2  A    between atoms: C_2  and  C_3
REMARK    3  A    between atoms: C_3  and  C_4
REMARK    4  A    between atoms: C_3  and  N_6
REMARK    5  A    between atoms: C_4  and  C_5
REMARK    6  A    between atoms: C_10  and  N_14
REMARK                            x       y       z     vdW  Elec       q    Type
REMARK                         _______ _______ _______ _____ _____    ______ ____
ROOT
ATOM      1  N   UNL     1     -31.689 -12.930  14.886  0.00  0.00    -0.311 N 
ATOM      2  C   UNL     1     -30.904 -12.490  16.002  0.00  0.00    +0.217 A 
ATOM      3  N   UNL     1     -30.634 -11.171  16.183  0.00  0.00    -0.221 NA
ATOM      4  C   UNL     1     -29.892 -10.744  17.235  0.00  0.00    +0.150 A 
ATOM      5  C   UNL     1     -29.396 -11.663  18.170  0.00  0.00    +0.184 A 
ATOM      6  C   UNL     1     -29.663 -13.032  17.952  0.00  0.00    +0.152 A 
ATOM      7  N   UNL     1     -29.118 -14.053  18.793  0.00  0.00    -0.341 N 
ATOM      8  N   UNL     1     -30.414 -13.403  16.880  0.00  0.00    -0.198 NA
ATOM      9  H   UNL     1     -31.888 -13.953  14.800  0.00  0.00    +0.149 HD
ATOM     10  H   UNL     1     -29.399 -15.048  18.647  0.00  0.00    +0.144 HD
ATOM     11  H   UNL     1     -28.352 -13.862  19.474  0.00  0.00    +0.144 HD
ENDROOT
BRANCH   5  12
ATOM     12  N   UNL     1     -28.669 -11.191  19.316  0.00  0.00    +0.061 N 
ATOM     13  O   UNL     1     -29.314 -10.452  20.281  0.00  0.00    -0.126 OA
ATOM     14  O   UNL     1     -27.521 -11.620  19.554  0.00  0.00    -0.126 OA
ENDBRANCH   5  12
BRANCH   1  15
ATOM     15  C   UNL     1     -32.244 -11.996  13.897  0.00  0.00    +0.073 C 
BRANCH  15  17
ATOM     16  C   UNL     1     -33.434 -13.135  11.938  0.00  0.00    +0.006 C 
ATOM     17  C   UNL     1     -32.106 -12.601  12.473  0.00  0.00    +0.019 C 
ENDBRANCH  15  17
BRANCH  15  18
ATOM     18  C   UNL     1     -33.714 -11.680  14.258  0.00  0.00    +0.019 C 
ATOM     19  C   UNL     1     -33.940 -10.216  14.630  0.00  0.00    +0.006 C 
ENDBRANCH  15  18
ENDBRANCH   1  15
TORSDOF 4
ENDMDL
MODEL 3
REMARK VINA RESULT:    -3.600      2.843      4.396
REMARK INTER + INTRA:          -5.059
REMARK INTER:                  -4.600
REMARK INTRA:                  -0.460
REMARK UNBOUND:                -0.617
REMARK  Name = 
REMARK  6 active torsions:
REMARK  status: ('A' for Active; 'I' for Inactive)
REMARK    1  A    between atoms: C_1  and  C_2
REMARK    2  A    between atoms: C_2  and  C_3
REMARK    3  A    between atoms: C_3  and  C_4
REMARK    4  A    between atoms: C_3  and  N_6
REMARK    5  A    between atoms: C_4  and  C_5
REMARK    6  A    between atoms: C_10  and  N_14
REMARK                            x       y       z     vdW  Elec       q    Type
REMARK                         _______ _______ _______ _____ _____    ______ ____
ROOT
ATOM      1  N   UNL     1     -29.072 -14.107  14.879  0.00  0.00    -0.311 N 
ATOM      2  C   UNL     1     -29.358 -13.881  16.265  0.00  0.00    +0.217 A 
ATOM      3  N   UNL     1     -30.605 -14.098  16.760  0.00  0.00    -0.221 NA
ATOM      4  C   UNL     1     -30.887 -13.887  18.070  0.00  0.00    +0.150 A 
ATOM      5  C   UNL     1     -29.886 -13.449  18.948  0.00  0.00    +0.184 A 
ATOM      6  C   UNL     1     -28.603 -13.201  18.411  0.00  0.00    +0.152 A 
ATOM      7  N   UNL     1     -27.543 -12.658  19.203  0.00  0.00    -0.341 N 
ATOM      8  N   UNL     1     -28.377 -13.432  17.090  0.00  0.00    -0.198 NA
ATOM      9  H   UNL     1     -28.093 -13.946  14.549  0.00  0.00    +0.149 HD
ATOM     10  H   UNL     1     -26.588 -12.561  18.793  0.00  0.00    +0.144 HD
ATOM     11  H   UNL     1     -27.711 -12.238  20.143  0.00  0.00    +0.144 HD
ENDROOT
BRANCH   5  12
ATOM     12  N   UNL     1     -30.182 -13.294  20.345  0.00  0.00    +0.061 N 
ATOM     13  O   UNL     1     -29.228 -13.606  21.286  0.00  0.00    -0.126 OA
ATOM     14  O   UNL     1     -31.207 -12.681  20.708  0.00  0.00    -0.126 OA
ENDBRANCH   5  12
BRANCH   1  15
ATOM     15  C   UNL     1     -30.088 -14.587  13.933  0.00  0.00    +0.073 C 
BRANCH  15  17
ATOM     16  C   UNL     1     -31.766 -13.577  12.285  0.00  0.00    +0.006 C 
ATOM     17  C   UNL     1     -31.127 -13.462  13.668  0.00  0.00    +0.019 C 
ENDBRANCH  15  17
BRANCH  15  18
ATOM     18  C   UNL     1     -29.396 -15.061  12.634  0.00  0.00    +0.019 C 
ATOM     19  C   UNL     1     -27.945 -14.595  12.522  0.00  0.00    +0.006 C 
ENDBRANCH  15  18
ENDBRANCH   1  15
TORSDOF 4
ENDMDL
MODEL 4
REMARK VINA RESULT:    -3.594      2.913      3.916
REMARK INTER + INTRA:          -5.052
REMARK INTER:                  -4.422
REMARK INTRA:                  -0.630
REMARK UNBOUND:                -0.617
REMARK  Name = 
REMARK  6 active torsions:
REMARK  status: ('A' for Active; 'I' for Inactive)
REMARK    1  A    between atoms: C_1  and  C_2
REMARK    2  A    between atoms: C_2  and  C_3
REMARK    3  A    between atoms: C_3  and  C_4
REMARK    4  A    between atoms: C_3  and  N_6
REMARK    5  A    between atoms: C_4  and  C_5
REMARK    6  A    between atoms: C_10  and  N_14
REMARK                            x       y       z     vdW  Elec       q    Type
REMARK                         _______ _______ _______ _____ _____    ______ ____
ROOT
ATOM      1  N   UNL     1     -29.061 -14.139  16.709  0.00  0.00    -0.311 N 
ATOM      2  C   UNL     1     -29.210 -13.035  17.611  0.00  0.00    +0.217 A 
ATOM      3  N   UNL     1     -29.694 -11.843  17.174  0.00  0.00    -0.221 NA
ATOM      4  C   UNL     1     -29.839 -10.792  18.019  0.00  0.00    +0.150 A 
ATOM      5  C   UNL     1     -29.502 -10.921  19.373  0.00  0.00    +0.184 A 
ATOM      6  C   UNL     1     -28.975 -12.158  19.805  0.00  0.00    +0.152 A 
ATOM      7  N   UNL     1     -28.510 -12.357  21.143  0.00  0.00    -0.341 N 
ATOM      8  N   UNL     1     -28.853 -13.178  18.913  0.00  0.00    -0.198 NA
ATOM      9  H   UNL     1     -28.704 -15.042  17.096  0.00  0.00    +0.149 HD
ATOM     10  H   UNL     1     -28.199 -13.307  21.446  0.00  0.00    +0.144 HD
ATOM     11  H   UNL     1     -28.352 -11.564  21.800  0.00  0.00    +0.144 HD
ENDROOT
BRANCH   5  12
ATOM     12  N   UNL     1     -29.725  -9.821  20.271  0.00  0.00    +0.061 N 
ATOM     13  O   UNL     1     -30.061  -8.585  19.770  0.00  0.00    -0.126 OA
ATOM     14  O   UNL     1     -29.827 -10.020  21.499  0.00  0.00    -0.126 OA
ENDBRANCH   5  12
BRANCH   1  15
ATOM     15  C   UNL     1     -29.422 -14.049  15.288  0.00  0.00    +0.073 C 
BRANCH  15  17
ATOM     16  C   UNL     1     -28.262 -14.550  13.062  0.00  0.00    +0.006 C 
ATOM     17  C   UNL     1     -28.574 -15.060  14.469  0.00  0.00    +0.019 C 
ENDBRANCH  15  17
BRANCH  15  18
ATOM     18  C   UNL     1     -30.941 -14.295  15.130  0.00  0.00    +0.019 C 
ATOM     19  C   UNL     1     -31.660 -13.161  14.402  0.00  0.00    +0.006 C 
ENDBRANCH  15  18
ENDBRANCH   1  15
TORSDOF 4
ENDMDL
MODEL 5
REMARK VINA RESULT:    -3.583      2.181      2.575
REMARK INTER + INTRA:          -5.038
REMARK INTER:                  -4.353
REMARK INTRA:                  -0.684
REMARK UNBOUND:                -0.617
REMARK  Name = 
REMARK  6 active torsions:
REMARK  status: ('A' for Active; 'I' for Inactive)
REMARK    1  A    between atoms: C_1  and  C_2
REMARK    2  A    between atoms: C_2  and  C_3
REMARK    3  A    between atoms: C_3  and  C_4
REMARK    4  A    between atoms: C_3  and  N_6
REMARK    5  A    between atoms: C_4  and  C_5
REMARK    6  A    between atoms: C_10  and  N_14
REMARK                            x       y       z     vdW  Elec       q    Type
REMARK                         _______ _______ _______ _____ _____    ______ ____
ROOT
ATOM      1  N   UNL     1     -31.202 -12.764  20.414  0.00  0.00    -0.311 N 
ATOM      2  C   UNL     1     -29.779 -12.884  20.289  0.00  0.00    +0.217 A 
ATOM      3  N   UNL     1     -29.088 -12.085  19.435  0.00  0.00    -0.221 NA
ATOM      4  C   UNL     1     -27.741 -12.190  19.309  0.00  0.00    +0.150 A 
ATOM      5  C   UNL     1     -27.030 -13.124  20.074  0.00  0.00    +0.184 A 
ATOM      6  C   UNL     1     -27.767 -13.965  20.937  0.00  0.00    +0.152 A 
ATOM      7  N   UNL     1     -27.145 -15.015  21.684  0.00  0.00    -0.341 N 
ATOM      8  N   UNL     1     -29.116 -13.814  21.024  0.00  0.00    -0.198 NA
ATOM      9  H   UNL     1     -31.687 -13.386  21.100  0.00  0.00    +0.149 HD
ATOM     10  H   UNL     1     -27.708 -15.565  22.370  0.00  0.00    +0.144 HD
ATOM     11  H   UNL     1     -26.174 -15.338  21.486  0.00  0.00    +0.144 HD
ENDROOT
BRANCH   5  12
ATOM     12  N   UNL     1     -25.597 -13.179  19.980  0.00  0.00    +0.061 N 
ATOM     13  O   UNL     1     -24.938 -14.358  20.243  0.00  0.00    -0.126 OA
ATOM     14  O   UNL     1     -24.963 -12.238  19.460  0.00  0.00    -0.126 OA
ENDBRANCH   5  12
BRANCH   1  15
ATOM     15  C   UNL     1     -31.979 -11.783  19.646  0.00  0.00    +0.073 C 
BRANCH  15  17
ATOM     16  C   UNL     1     -32.121 -11.735  17.090  0.00  0.00    +0.006 C 
ATOM     17  C   UNL     1     -32.551 -12.456  18.367  0.00  0.00    +0.019 C 
ENDBRANCH  15  17
BRANCH  15  18
ATOM     18  C   UNL     1     -33.092 -11.194  20.544  0.00  0.00    +0.019 C 
ATOM     19  C   UNL     1     -32.578 -10.712  21.899  0.00  0.00    +0.006 C 
ENDBRANCH  15  18
ENDBRANCH   1  15
TORSDOF 4
ENDMDL
MODEL 6
REMARK VINA RESULT:    -3.519      2.807      3.844
REMARK INTER + INTRA:          -4.958
REMARK INTER:                  -4.313
REMARK INTRA:                  -0.646
REMARK UNBOUND:                -0.617
REMARK  Name = 
REMARK  6 active torsions:
REMARK  status: ('A' for Active; 'I' for Inactive)
REMARK    1  A    between atoms: C_1  and  C_2
REMARK    2  A    between atoms: C_2  and  C_3
REMARK    3  A    between atoms: C_3  and  C_4
REMARK    4  A    between atoms: C_3  and  N_6
REMARK    5  A    between atoms: C_4  and  C_5
REMARK    6  A    between atoms: C_10  and  N_14
REMARK                            x       y       z     vdW  Elec       q    Type
REMARK                         _______ _______ _______ _____ _____    ______ ____
ROOT
ATOM      1  N   UNL     1     -31.133 -13.995  15.240  0.00  0.00    -0.311 N 
ATOM      2  C   UNL     1     -30.754 -13.301  16.435  0.00  0.00    +0.217 A 
ATOM      3  N   UNL     1     -30.177 -12.072  16.371  0.00  0.00    -0.221 NA
ATOM      4  C   UNL     1     -29.815 -11.407  17.496  0.00  0.00    +0.150 A 
ATOM      5  C   UNL     1     -30.042 -11.974  18.758  0.00  0.00    +0.184 A 
ATOM      6  C   UNL     1     -30.617 -13.263  18.805  0.00  0.00    +0.152 A 
ATOM      7  N   UNL     1     -30.797 -13.966  20.038  0.00  0.00    -0.341 N 
ATOM      8  N   UNL     1     -30.962 -13.882  17.645  0.00  0.00    -0.198 NA
ATOM      9  H   UNL     1     -31.593 -14.928  15.341  0.00  0.00    +0.149 HD
ATOM     10  H   UNL     1     -31.295 -14.883  20.042  0.00  0.00    +0.144 HD
ATOM     11  H   UNL     1     -30.342 -13.659  20.925  0.00  0.00    +0.144 HD
ENDROOT
BRANCH   5  12
ATOM     12  N   UNL     1     -29.715 -11.230  19.942  0.00  0.00    +0.061 N 
ATOM     13  O   UNL     1     -29.309 -11.892  21.078  0.00  0.00    -0.126 OA
ATOM     14  O   UNL     1     -29.588  -9.988  19.892  0.00  0.00    -0.126 OA
ENDBRANCH   5  12
BRANCH   1  15
ATOM     15  C   UNL     1     -30.931 -13.425  13.901  0.00  0.00    +0.073 C 
BRANCH  15  17
ATOM     16  C   UNL     1     -28.888 -14.889  13.416  0.00  0.00    +0.006 C 
ATOM     17  C   UNL     1     -30.296 -14.493  12.969  0.00  0.00    +0.019 C 
ENDBRANCH  15  17
BRANCH  15  18
ATOM     18  C   UNL     1     -32.282 -12.903  13.357  0.00  0.00    +0.019 C 
ATOM     19  C   UNL     1     -32.583 -13.382  11.938  0.00  0.00    +0.006 C 
ENDBRANCH  15  18
ENDBRANCH   1  15
TORSDOF 4
ENDMDL
MODEL 7
REMARK VINA RESULT:    -3.465      4.065      5.578
REMARK INTER + INTRA:          -4.893
REMARK INTER:                  -4.614
REMARK INTRA:                  -0.278
REMARK UNBOUND:                -0.617
REMARK  Name = 
REMARK  6 active torsions:
REMARK  status: ('A' for Active; 'I' for Inactive)
REMARK    1  A    between atoms: C_1  and  C_2
REMARK    2  A    between atoms: C_2  and  C_3
REMARK    3  A    between atoms: C_3  and  C_4
REMARK    4  A    between atoms: C_3  and  N_6
REMARK    5  A    between atoms: C_4  and  C_5
REMARK    6  A    between atoms: C_10  and  N_14
REMARK                            x       y       z     vdW  Elec       q    Type
REMARK                         _______ _______ _______ _____ _____    ______ ____
ROOT
ATOM      1  N   UNL     1     -32.040 -11.866  14.027  0.00  0.00    -0.311 N 
ATOM      2  C   UNL     1     -31.723 -11.139  15.221  0.00  0.00    +0.217 A 
ATOM      3  N   UNL     1     -30.636 -11.470  15.966  0.00  0.00    -0.221 NA
ATOM      4  C   UNL     1     -30.326 -10.788  17.098  0.00  0.00    +0.150 A 
ATOM      5  C   UNL     1     -31.122  -9.713  17.516  0.00  0.00    +0.184 A 
ATOM      6  C   UNL     1     -32.263  -9.401  16.746  0.00  0.00    +0.152 A 
ATOM      7  N   UNL     1     -33.191  -8.388  17.144  0.00  0.00    -0.341 N 
ATOM      8  N   UNL     1     -32.524 -10.117  15.619  0.00  0.00    -0.198 NA
ATOM      9  H   UNL     1     -32.875 -11.561  13.476  0.00  0.00    +0.149 HD
ATOM     10  H   UNL     1     -33.981  -8.131  16.511  0.00  0.00    +0.144 HD
ATOM     11  H   UNL     1     -33.185  -7.973  18.101  0.00  0.00    +0.144 HD
ENDROOT
BRANCH   5  12
ATOM     12  N   UNL     1     -30.745  -8.959  18.679  0.00  0.00    +0.061 N 
ATOM     13  O   UNL     1     -31.668  -8.150  19.301  0.00  0.00    -0.126 OA
ATOM     14  O   UNL     1     -29.662  -9.189  19.256  0.00  0.00    -0.126 OA
ENDBRANCH   5  12
BRANCH   1  15
ATOM     15  C   UNL     1     -31.219 -12.984  13.545  0.00  0.00    +0.073 C 
BRANCH  15  17
ATOM     16  C   UNL     1     -29.821 -14.803  14.680  0.00  0.00    +0.006 C 
ATOM     17  C   UNL     1     -31.179 -14.105  14.620  0.00  0.00    +0.019 C 
ENDBRANCH  15  17
BRANCH  15  18
ATOM     18  C   UNL     1     -31.782 -13.488  12.195  0.00  0.00    +0.019 C 
ATOM     19  C   UNL     1     -33.272 -13.198  12.020  0.00  0.00    +0.006 C 
ENDBRANCH  15  18
ENDBRANCH   1  15
TORSDOF 4
ENDMDL
MODEL 8
REMARK VINA RESULT:    -3.428      1.439      2.682
REMARK INTER + INTRA:          -4.847
REMARK INTER:                  -4.150
REMARK INTRA:                  -0.696
REMARK UNBOUND:                -0.617
REMARK  Name = 
REMARK  6 active torsions:
REMARK  status: ('A' for Active; 'I' for Inactive)
REMARK    1  A    between atoms: C_1  and  C_2
REMARK    2  A    between atoms: C_2  and  C_3
REMARK    3  A    between atoms: C_3  and  C_4
REMARK    4  A    between atoms: C_3  and  N_6
REMARK    5  A    between atoms: C_4  and  C_5
REMARK    6  A    between atoms: C_10  and  N_14
REMARK                            x       y       z     vdW  Elec       q    Type
REMARK                         _______ _______ _______ _____ _____    ______ ____
ROOT
ATOM      1  N   UNL     1     -29.225 -10.148  17.641  0.00  0.00    -0.311 N 
ATOM      2  C   UNL     1     -28.573 -11.195  18.372  0.00  0.00    +0.217 A 
ATOM      3  N   UNL     1     -29.298 -12.162  18.992  0.00  0.00    -0.221 NA
ATOM      4  C   UNL     1     -28.691 -13.157  19.686  0.00  0.00    +0.150 A 
ATOM      5  C   UNL     1     -27.293 -13.213  19.767  0.00  0.00    +0.184 A 
ATOM      6  C   UNL     1     -26.557 -12.185  19.140  0.00  0.00    +0.152 A 
ATOM      7  N   UNL     1     -25.133 -12.098  19.250  0.00  0.00    -0.341 N 
ATOM      8  N   UNL     1     -27.218 -11.212  18.456  0.00  0.00    -0.198 NA
ATOM      9  H   UNL     1     -28.624  -9.438  17.164  0.00  0.00    +0.149 HD
ATOM     10  H   UNL     1     -24.616 -11.370  18.710  0.00  0.00    +0.144 HD
ATOM     11  H   UNL     1     -24.594 -12.658  19.945  0.00  0.00    +0.144 HD
ENDROOT
BRANCH   5  12
ATOM     12  N   UNL     1     -26.662 -14.310  20.449  0.00  0.00    +0.061 N 
ATOM     13  O   UNL     1     -27.380 -15.060  21.351  0.00  0.00    -0.126 OA
ATOM     14  O   UNL     1     -25.544 -14.723  20.079  0.00  0.00    -0.126 OA
ENDBRANCH   5  12
BRANCH   1  15
ATOM     15  C   UNL     1     -30.686 -10.067  17.516  0.00  0.00    +0.073 C 
BRANCH  15  17
ATOM     16  C   UNL     1     -32.130  -9.693  19.596  0.00  0.00    +0.006 C 
ATOM     17  C   UNL     1     -31.242  -9.038  18.539  0.00  0.00    +0.019 C 
ENDBRANCH  15  17
BRANCH  15  18
ATOM     18  C   UNL     1     -31.056  -9.702  16.059  0.00  0.00    +0.019 C 
ATOM     19  C   UNL     1     -31.626 -10.880  15.271  0.00  0.00    +0.006 C 
ENDBRANCH  15  18
ENDBRANCH   1  15
TORSDOF 4
ENDMDL
MODEL 9
REMARK VINA RESULT:    -3.295      4.981      6.114
REMARK INTER + INTRA:          -4.682
REMARK INTER:                  -4.030
REMARK INTRA:                  -0.652
REMARK UNBOUND:                -0.617
REMARK  Name = 
REMARK  6 active torsions:
REMARK  status: ('A' for Active; 'I' for Inactive)
REMARK    1  A    between atoms: C_1  and  C_2
REMARK    2  A    between atoms: C_2  and  C_3
REMARK    3  A    between atoms: C_3  and  C_4
REMARK    4  A    between atoms: C_3  and  N_6
REMARK    5  A    between atoms: C_4  and  C_5
REMARK    6  A    between atoms: C_10  and  N_14
REMARK                            x       y       z     vdW  Elec       q    Type
REMARK                         _______ _______ _______ _____ _____    ______ ____
ROOT
ATOM      1  N   UNL     1     -31.713 -11.939  13.900  0.00  0.00    -0.311 N 
ATOM      2  C   UNL     1     -32.089 -11.633  15.249  0.00  0.00    +0.217 A 
ATOM      3  N   UNL     1     -32.560 -12.603  16.075  0.00  0.00    -0.221 NA
ATOM      4  C   UNL     1     -32.918 -12.324  17.354  0.00  0.00    +0.150 A 
ATOM      5  C   UNL     1     -32.795 -11.020  17.854  0.00  0.00    +0.184 A 
ATOM      6  C   UNL     1     -32.329 -10.019  16.974  0.00  0.00    +0.152 A 
ATOM      7  N   UNL     1     -32.264  -8.643  17.360  0.00  0.00    -0.341 N 
ATOM      8  N   UNL     1     -31.984 -10.357  15.703  0.00  0.00    -0.198 NA
ATOM      9  H   UNL     1     -31.336 -11.163  13.309  0.00  0.00    +0.149 HD
ATOM     10  H   UNL     1     -31.842  -7.943  16.710  0.00  0.00    +0.144 HD
ATOM     11  H   UNL     1     -32.731  -8.284  18.220  0.00  0.00    +0.144 HD
ENDROOT
BRANCH   5  12
ATOM     12  N   UNL     1     -33.114 -10.753  19.229  0.00  0.00    +0.061 N 
ATOM     13  O   UNL     1     -33.647  -9.535  19.585  0.00  0.00    -0.126 OA
ATOM     14  O   UNL     1     -33.116 -11.678  20.068  0.00  0.00    -0.126 OA
ENDBRANCH   5  12
BRANCH   1  15
ATOM     15  C   UNL     1     -31.808 -13.296  13.346  0.00  0.00    +0.073 C 
BRANCH  15  17
ATOM     16  C   UNL     1     -33.823 -12.544  11.958  0.00  0.00    +0.006 C 
ATOM     17  C   UNL     1     -32.462 -13.240  11.938  0.00  0.00    +0.019 C 
ENDBRANCH  15  17
BRANCH  15  18
ATOM     18  C   UNL     1     -30.400 -13.934  13.311  0.00  0.00    +0.019 C 
ATOM     19  C   UNL     1     -30.103 -14.800  14.534  0.00  0.00    +0.006 C 
ENDBRANCH  15  18
ENDBRANCH   1  15
TORSDOF 4
ENDMDL
