MODEL 1
REMARK VINA RESULT:    -4.563      0.000      0.000
REMARK INTER + INTRA:          -8.597
REMARK INTER:                  -6.831
REMARK INTRA:                  -1.766
REMARK UNBOUND:                -1.766
REMARK  Name = 
REMARK  11 active torsions:
REMARK  status: ('A' for Active; 'I' for Inactive)
REMARK    1  A    between atoms: C_1  and  O_2
REMARK    2  A    between atoms: O_2  and  C_3
REMARK    3  A    between atoms: C_6  and  C_11
REMARK    4  A    between atoms: C_8  and  O_9
REMARK    5  A    between atoms: O_9  and  C_10
REMARK    6  A    between atoms: C_11  and  C_12
REMARK    7  A    between atoms: N_14  and  C_15
REMARK    8  A    between atoms: C_15  and  C_16
REMARK    9  A    between atoms: C_15  and  C_20
REMARK   10  A    between atoms: C_16  and  C_17
REMARK   11  A    between atoms: C_17  and  O_19
REMARK                            x       y       z     vdW  Elec       q    Type
REMARK                         _______ _______ _______ _____ _____    ______ ____
ROOT
ATOM      1  C   UNL     1     -29.922 -10.036  18.370  0.00  0.00    +0.218 C 
ATOM      2  O   UNL     1     -29.959  -9.043  19.147  0.00  0.00    -0.275 OA
ATOM      3  N   UNL     1     -29.898 -11.370  18.896  0.00  0.00    -0.308 N 
ATOM      4  H   UNL     1     -29.975 -12.171  18.227  0.00  0.00    +0.149 HD
ENDROOT
BRANCH   1   5
ATOM      5  C   UNL     1     -29.833  -9.814  16.892  0.00  0.00    +0.131 C 
BRANCH   5   9
ATOM      6  C   UNL     1     -33.242 -11.536  14.872  0.00  0.00    +0.161 A 
ATOM      7  C   UNL     1     -32.030 -12.248  14.959  0.00  0.00    +0.049 A 
ATOM      8  C   UNL     1     -30.932 -11.696  15.621  0.00  0.00    +0.008 A 
ATOM      9  C   UNL     1     -31.028 -10.429  16.216  0.00  0.00    -0.035 A 
ATOM     10  C   UNL     1     -32.228  -9.709  16.116  0.00  0.00    +0.053 A 
ATOM     11  C   UNL     1     -33.340 -10.259  15.449  0.00  0.00    +0.162 A 
BRANCH   6  13
ATOM     12  C   UNL     1     -34.408 -12.437  12.848  0.00  0.00    +0.277 C 
ATOM     13  O   UNL     1     -34.370 -12.061  14.220  0.00  0.00    -0.491 OA
ENDBRANCH   6  13
BRANCH  11  14
ATOM     14  O   UNL     1     -34.557  -9.568  15.335  0.00  0.00    -0.491 OA
ATOM     15  C   UNL     1     -34.679  -8.148  15.306  0.00  0.00    +0.277 C 
ENDBRANCH  11  14
ENDBRANCH   5   9
ENDBRANCH   1   5
BRANCH   3  16
ATOM     16  C   UNL     1     -29.792 -11.652  20.333  0.00  0.00    +0.114 C 
BRANCH  16  17
ATOM     17  C   UNL     1     -28.635 -12.616  20.592  0.00  0.00    -0.027 A 
ATOM     18  C   UNL     1     -27.514 -12.556  19.739  0.00  0.00    +0.008 A 
ATOM     19  C   UNL     1     -26.406 -13.380  19.951  0.00  0.00    +0.038 A 
ATOM     20  C   UNL     1     -26.392 -14.268  21.027  0.00  0.00    +0.123 A 
ATOM     21  F   UNL     1     -25.314 -15.062  21.235  0.00  0.00    -0.205 F 
ATOM     22  C   UNL     1     -27.483 -14.328  21.896  0.00  0.00    +0.038 A 
ATOM     23  C   UNL     1     -28.594 -13.505  21.689  0.00  0.00    +0.008 A 
ENDBRANCH  16  17
BRANCH  16  24
ATOM     24  C   UNL     1     -31.176 -12.067  20.885  0.00  0.00    +0.147 C 
BRANCH  24  25
ATOM     25  C   UNL     1     -32.237 -12.217  19.827  0.00  0.00    +0.307 C 
ATOM     26  O   UNL     1     -33.257 -11.477  19.863  0.00  0.00    -0.251 OA
BRANCH  25  27
ATOM     27  O   UNL     1     -32.128 -13.191  18.838  0.00  0.00    -0.481 OA
ATOM     28  H   UNL     1     -31.220 -13.497  18.504  0.00  0.00    +0.295 HD
ENDBRANCH  25  27
ENDBRANCH  24  25
ENDBRANCH  16  24
ENDBRANCH   3  16
TORSDOF 9
ENDMDL
MODEL 2
REMARK VINA RESULT:    -4.496      0.838      2.031
REMARK INTER + INTRA:          -8.497
REMARK INTER:                  -6.747
REMARK INTRA:                  -1.750
REMARK UNBOUND:                -1.766
REMARK  Name = 
REMARK  11 active torsions:
REMARK  status: ('A' for Active; 'I' for Inactive)
REMARK    1  A    between atoms: C_1  and  O_2
REMARK    2  A    between atoms: O_2  and  C_3
REMARK    3  A    between atoms: C_6  and  C_11
REMARK    4  A    between atoms: C_8  and  O_9
REMARK    5  A    between atoms: O_9  and  C_10
REMARK    6  A    between atoms: C_11  and  C_12
REMARK    7  A    between atoms: N_14  and  C_15
REMARK    8  A    between atoms: C_15  and  C_16
REMARK    9  A    between atoms: C_15  and  C_20
REMARK   10  A    between atoms: C_16  and  C_17
REMARK   11  A    between atoms: C_17  and  O_19
REMARK                            x       y       z     vdW  Elec       q    Type
REMARK                         _______ _______ _______ _____ _____    ______ ____
ROOT
ATOM      1  C   UNL     1     -29.785 -10.066  18.532  0.00  0.00    +0.218 C 
ATOM      2  O   UNL     1     -29.835  -9.102  19.343  0.00  0.00    -0.275 OA
ATOM      3  N   UNL     1     -29.776 -11.418  19.009  0.00  0.00    -0.308 N 
ATOM      4  H   UNL     1     -29.841 -12.194  18.310  0.00  0.00    +0.149 HD
ENDROOT
BRANCH   1   5
ATOM      5  C   UNL     1     -29.667  -9.791  17.064  0.00  0.00    +0.131 C 
BRANCH   5   9
ATOM      6  C   UNL     1     -33.015 -11.640  15.054  0.00  0.00    +0.161 A 
ATOM      7  C   UNL     1     -33.109 -10.317  15.527  0.00  0.00    +0.049 A 
ATOM      8  C   UNL     1     -32.024  -9.716  16.167  0.00  0.00    +0.008 A 
ATOM      9  C   UNL     1     -30.823 -10.421  16.337  0.00  0.00    -0.035 A 
ATOM     10  C   UNL     1     -30.731 -11.745  15.883  0.00  0.00    +0.053 A 
ATOM     11  C   UNL     1     -31.822 -12.359  15.237  0.00  0.00    +0.162 A 
BRANCH   6  13
ATOM     12  C   UNL     1     -34.316 -12.222  12.996  0.00  0.00    +0.277 C 
ATOM     13  O   UNL     1     -34.082 -12.276  14.400  0.00  0.00    -0.491 OA
ENDBRANCH   6  13
BRANCH  11  14
ATOM     14  O   UNL     1     -31.761 -13.681  14.767  0.00  0.00    -0.491 OA
ATOM     15  C   UNL     1     -30.662 -14.563  14.978  0.00  0.00    +0.277 C 
ENDBRANCH  11  14
ENDBRANCH   5   9
ENDBRANCH   1   5
BRANCH   3  16
ATOM     16  C   UNL     1     -29.698 -11.753  20.436  0.00  0.00    +0.114 C 
BRANCH  16  17
ATOM     17  C   UNL     1     -28.518 -12.690  20.690  0.00  0.00    -0.027 A 
ATOM     18  C   UNL     1     -27.417 -12.627  19.812  0.00  0.00    +0.008 A 
ATOM     19  C   UNL     1     -26.290 -13.426  20.017  0.00  0.00    +0.038 A 
ATOM     20  C   UNL     1     -26.236 -14.292  21.110  0.00  0.00    +0.123 A 
ATOM     21  F   UNL     1     -25.140 -15.062  21.311  0.00  0.00    -0.205 F 
ATOM     22  C   UNL     1     -27.307 -14.355  22.003  0.00  0.00    +0.038 A 
ATOM     23  C   UNL     1     -28.437 -13.556  21.804  0.00  0.00    +0.008 A 
ENDBRANCH  16  17
BRANCH  16  24
ATOM     24  C   UNL     1     -31.083 -12.231  20.934  0.00  0.00    +0.147 C 
BRANCH  24  25
ATOM     25  C   UNL     1     -32.122 -12.330  19.850  0.00  0.00    +0.307 C 
ATOM     26  O   UNL     1     -33.095 -11.528  19.849  0.00  0.00    -0.251 OA
BRANCH  25  27
ATOM     27  O   UNL     1     -32.049 -13.322  18.875  0.00  0.00    -0.481 OA
ATOM     28  H   UNL     1     -32.273 -14.288  19.095  0.00  0.00    +0.295 HD
ENDBRANCH  25  27
ENDBRANCH  24  25
ENDBRANCH  16  24
ENDBRANCH   3  16
TORSDOF 9
ENDMDL
MODEL 3
REMARK VINA RESULT:    -4.491      3.098      4.633
REMARK INTER + INTRA:          -8.488
REMARK INTER:                  -6.437
REMARK INTRA:                  -2.051
REMARK UNBOUND:                -1.766
REMARK  Name = 
REMARK  11 active torsions:
REMARK  status: ('A' for Active; 'I' for Inactive)
REMARK    1  A    between atoms: C_1  and  O_2
REMARK    2  A    between atoms: O_2  and  C_3
REMARK    3  A    between atoms: C_6  and  C_11
REMARK    4  A    between atoms: C_8  and  O_9
REMARK    5  A    between atoms: O_9  and  C_10
REMARK    6  A    between atoms: C_11  and  C_12
REMARK    7  A    between atoms: N_14  and  C_15
REMARK    8  A    between atoms: C_15  and  C_16
REMARK    9  A    between atoms: C_15  and  C_20
REMARK   10  A    between atoms: C_16  and  C_17
REMARK   11  A    between atoms: C_17  and  O_19
REMARK                            x       y       z     vdW  Elec       q    Type
REMARK                         _______ _______ _______ _____ _____    ______ ____
ROOT
ATOM      1  C   UNL     1     -29.782 -14.276  17.212  0.00  0.00    +0.218 C 
ATOM      2  O   UNL     1     -30.909 -14.729  17.550  0.00  0.00    -0.275 OA
ATOM      3  N   UNL     1     -28.992 -13.523  18.143  0.00  0.00    -0.308 N 
ATOM      4  H   UNL     1     -28.019 -13.253  17.868  0.00  0.00    +0.149 HD
ENDROOT
BRANCH   1   5
ATOM      5  C   UNL     1     -29.298 -14.471  15.809  0.00  0.00    +0.131 C 
BRANCH   5   9
ATOM      6  C   UNL     1     -31.971 -12.531  13.024  0.00  0.00    +0.161 A 
ATOM      7  C   UNL     1     -31.313 -13.724  12.667  0.00  0.00    +0.049 A 
ATOM      8  C   UNL     1     -30.457 -14.356  13.571  0.00  0.00    +0.008 A 
ATOM      9  C   UNL     1     -30.252 -13.815  14.849  0.00  0.00    -0.035 A 
ATOM     10  C   UNL     1     -30.893 -12.618  15.202  0.00  0.00    +0.053 A 
ATOM     11  C   UNL     1     -31.757 -11.973  14.295  0.00  0.00    +0.162 A 
BRANCH   6  13
ATOM     12  C   UNL     1     -34.206 -12.230  11.938  0.00  0.00    +0.277 C 
ATOM     13  O   UNL     1     -32.845 -11.870  12.145  0.00  0.00    -0.491 OA
ENDBRANCH   6  13
BRANCH  11  14
ATOM     14  O   UNL     1     -32.418 -10.777  14.618  0.00  0.00    -0.491 OA
ATOM     15  C   UNL     1     -33.468 -10.668  15.575  0.00  0.00    +0.277 C 
ENDBRANCH  11  14
ENDBRANCH   5   9
ENDBRANCH   1   5
BRANCH   3  16
ATOM     16  C   UNL     1     -29.488 -13.135  19.469  0.00  0.00    +0.114 C 
BRANCH  16  17
ATOM     17  C   UNL     1     -30.366 -11.890  19.355  0.00  0.00    -0.027 A 
ATOM     18  C   UNL     1     -29.797 -10.722  18.807  0.00  0.00    +0.008 A 
ATOM     19  C   UNL     1     -30.561  -9.564  18.636  0.00  0.00    +0.038 A 
ATOM     20  C   UNL     1     -31.908  -9.557  18.996  0.00  0.00    +0.123 A 
ATOM     21  F   UNL     1     -32.649  -8.435  18.824  0.00  0.00    -0.205 F 
ATOM     22  C   UNL     1     -32.497 -10.709  19.521  0.00  0.00    +0.038 A 
ATOM     23  C   UNL     1     -31.738 -11.871  19.693  0.00  0.00    +0.008 A 
ENDBRANCH  16  17
BRANCH  16  24
ATOM     24  C   UNL     1     -28.306 -13.060  20.465  0.00  0.00    +0.147 C 
BRANCH  24  25
ATOM     25  C   UNL     1     -26.961 -13.317  19.838  0.00  0.00    +0.307 C 
ATOM     26  O   UNL     1     -26.302 -12.350  19.370  0.00  0.00    -0.251 OA
BRANCH  25  27
ATOM     27  O   UNL     1     -26.458 -14.611  19.728  0.00  0.00    -0.481 OA
ATOM     28  H   UNL     1     -26.582 -15.148  18.876  0.00  0.00    +0.295 HD
ENDBRANCH  25  27
ENDBRANCH  24  25
ENDBRANCH  16  24
ENDBRANCH   3  16
TORSDOF 9
ENDMDL
MODEL 4
REMARK VINA RESULT:    -4.413      2.922      4.340
REMARK INTER + INTRA:          -8.373
REMARK INTER:                  -6.629
REMARK INTRA:                  -1.744
REMARK UNBOUND:                -1.766
REMARK  Name = 
REMARK  11 active torsions:
REMARK  status: ('A' for Active; 'I' for Inactive)
REMARK    1  A    between atoms: C_1  and  O_2
REMARK    2  A    between atoms: O_2  and  C_3
REMARK    3  A    between atoms: C_6  and  C_11
REMARK    4  A    between atoms: C_8  and  O_9
REMARK    5  A    between atoms: O_9  and  C_10
REMARK    6  A    between atoms: C_11  and  C_12
REMARK    7  A    between atoms: N_14  and  C_15
REMARK    8  A    between atoms: C_15  and  C_16
REMARK    9  A    between atoms: C_15  and  C_20
REMARK   10  A    between atoms: C_16  and  C_17
REMARK   11  A    between atoms: C_17  and  O_19
REMARK                            x       y       z     vdW  Elec       q    Type
REMARK                         _______ _______ _______ _____ _____    ______ ____
ROOT
ATOM      1  C   UNL     1     -29.779 -14.018  17.117  0.00  0.00    +0.218 C 
ATOM      2  O   UNL     1     -30.743 -14.543  17.738  0.00  0.00    -0.275 OA
ATOM      3  N   UNL     1     -28.696 -13.411  17.834  0.00  0.00    -0.308 N 
ATOM      4  H   UNL     1     -27.863 -13.080  17.294  0.00  0.00    +0.149 HD
ENDROOT
BRANCH   1   5
ATOM      5  C   UNL     1     -29.803 -13.972  15.621  0.00  0.00    +0.131 C 
BRANCH   5   9
ATOM      6  C   UNL     1     -32.820 -11.199  14.250  0.00  0.00    +0.161 A 
ATOM      7  C   UNL     1     -32.643 -12.438  13.604  0.00  0.00    +0.049 A 
ATOM      8  C   UNL     1     -31.676 -13.337  14.053  0.00  0.00    +0.008 A 
ATOM      9  C   UNL     1     -30.875 -13.022  15.161  0.00  0.00    -0.035 A 
ATOM     10  C   UNL     1     -31.037 -11.782  15.797  0.00  0.00    +0.053 A 
ATOM     11  C   UNL     1     -32.010 -10.868  15.349  0.00  0.00    +0.162 A 
BRANCH   6  13
ATOM     12  C   UNL     1     -34.953 -10.601  13.084  0.00  0.00    +0.277 C 
ATOM     13  O   UNL     1     -33.787 -10.271  13.832  0.00  0.00    -0.491 OA
ENDBRANCH   6  13
BRANCH  11  14
ATOM     14  O   UNL     1     -32.200  -9.621  15.965  0.00  0.00    -0.491 OA
ATOM     15  C   UNL     1     -33.013  -9.405  17.116  0.00  0.00    +0.277 C 
ENDBRANCH  11  14
ENDBRANCH   5   9
ENDBRANCH   1   5
BRANCH   3  16
ATOM     16  C   UNL     1     -28.703 -13.255  19.294  0.00  0.00    +0.114 C 
BRANCH  16  17
ATOM     17  C   UNL     1     -29.613 -12.094  19.692  0.00  0.00    -0.027 A 
ATOM     18  C   UNL     1     -30.691 -12.361  20.561  0.00  0.00    +0.008 A 
ATOM     19  C   UNL     1     -31.532 -11.334  20.996  0.00  0.00    +0.038 A 
ATOM     20  C   UNL     1     -31.304 -10.021  20.584  0.00  0.00    +0.123 A 
ATOM     21  F   UNL     1     -32.117  -9.025  21.012  0.00  0.00    -0.205 F 
ATOM     22  C   UNL     1     -30.230  -9.732  19.740  0.00  0.00    +0.038 A 
ATOM     23  C   UNL     1     -29.383 -10.755  19.302  0.00  0.00    +0.008 A 
ENDBRANCH  16  17
BRANCH  16  24
ATOM     24  C   UNL     1     -27.248 -13.205  19.818  0.00  0.00    +0.147 C 
BRANCH  24  25
ATOM     25  C   UNL     1     -26.919 -14.286  20.813  0.00  0.00    +0.307 C 
ATOM     26  O   UNL     1     -25.713 -14.517  21.100  0.00  0.00    -0.251 OA
BRANCH  25  27
ATOM     27  O   UNL     1     -27.924 -15.062  21.385  0.00  0.00    -0.481 OA
ATOM     28  H   UNL     1     -28.899 -14.792  21.309  0.00  0.00    +0.295 HD
ENDBRANCH  25  27
ENDBRANCH  24  25
ENDBRANCH  16  24
ENDBRANCH   3  16
TORSDOF 9
ENDMDL
MODEL 5
REMARK VINA RESULT:    -4.349      2.867      4.570
REMARK INTER + INTRA:          -8.277
REMARK INTER:                  -6.261
REMARK INTRA:                  -2.016
REMARK UNBOUND:                -1.766
REMARK  Name = 
REMARK  11 active torsions:
REMARK  status: ('A' for Active; 'I' for Inactive)
REMARK    1  A    between atoms: C_1  and  O_2
REMARK    2  A    between atoms: O_2  and  C_3
REMARK    3  A    between atoms: C_6  and  C_11
REMARK    4  A    between atoms: C_8  and  O_9
REMARK    5  A    between atoms: O_9  and  C_10
REMARK    6  A    between atoms: C_11  and  C_12
REMARK    7  A    between atoms: N_14  and  C_15
REMARK    8  A    between atoms: C_15  and  C_16
REMARK    9  A    between atoms: C_15  and  C_20
REMARK   10  A    between atoms: C_16  and  C_17
REMARK   11  A    between atoms: C_17  and  O_19
REMARK                            x       y       z     vdW  Elec       q    Type
REMARK                         _______ _______ _______ _____ _____    ______ ____
ROOT
ATOM      1  C   UNL     1     -30.011 -13.919  17.615  0.00  0.00    +0.218 C 
ATOM      2  O   UNL     1     -30.938 -14.698  17.965  0.00  0.00    -0.275 OA
ATOM      3  N   UNL     1     -29.235 -13.222  18.599  0.00  0.00    -0.308 N 
ATOM      4  H   UNL     1     -28.406 -12.667  18.280  0.00  0.00    +0.149 HD
ENDROOT
BRANCH   1   5
ATOM      5  C   UNL     1     -29.766 -13.671  16.158  0.00  0.00    +0.131 C 
BRANCH   5   9
ATOM      6  C   UNL     1     -32.724 -10.885  14.689  0.00  0.00    +0.161 A 
ATOM      7  C   UNL     1     -32.196 -10.746  15.987  0.00  0.00    +0.049 A 
ATOM      8  C   UNL     1     -31.233 -11.640  16.457  0.00  0.00    +0.008 A 
ATOM      9  C   UNL     1     -30.772 -12.681  15.638  0.00  0.00    -0.035 A 
ATOM     10  C   UNL     1     -31.308 -12.833  14.350  0.00  0.00    +0.053 A 
ATOM     11  C   UNL     1     -32.281 -11.936  13.868  0.00  0.00    +0.162 A 
BRANCH   6  13
ATOM     12  C   UNL     1     -34.404  -9.049  14.956  0.00  0.00    +0.277 C 
ATOM     13  O   UNL     1     -33.689 -10.003  14.178  0.00  0.00    -0.491 OA
ENDBRANCH   6  13
BRANCH  11  14
ATOM     14  O   UNL     1     -32.834 -12.057  12.583  0.00  0.00    -0.491 OA
ATOM     15  C   UNL     1     -33.821 -13.017  12.216  0.00  0.00    +0.277 C 
ENDBRANCH  11  14
ENDBRANCH   5   9
ENDBRANCH   1   5
BRANCH   3  16
ATOM     16  C   UNL     1     -29.545 -13.274  20.033  0.00  0.00    +0.114 C 
BRANCH  16  17
ATOM     17  C   UNL     1     -30.467 -12.115  20.411  0.00  0.00    -0.027 A 
ATOM     18  C   UNL     1     -29.877 -10.887  20.774  0.00  0.00    +0.008 A 
ATOM     19  C   UNL     1     -30.666  -9.777  21.088  0.00  0.00    +0.038 A 
ATOM     20  C   UNL     1     -32.056  -9.870  21.030  0.00  0.00    +0.123 A 
ATOM     21  F   UNL     1     -32.820  -8.791  21.328  0.00  0.00    -0.205 F 
ATOM     22  C   UNL     1     -32.660 -11.071  20.652  0.00  0.00    +0.038 A 
ATOM     23  C   UNL     1     -31.876 -12.184  20.336  0.00  0.00    +0.008 A 
ENDBRANCH  16  17
BRANCH  16  24
ATOM     24  C   UNL     1     -28.235 -13.409  20.844  0.00  0.00    +0.147 C 
BRANCH  24  25
ATOM     25  C   UNL     1     -27.007 -13.608  19.995  0.00  0.00    +0.307 C 
ATOM     26  O   UNL     1     -26.562 -12.644  19.316  0.00  0.00    -0.251 OA
BRANCH  25  27
ATOM     27  O   UNL     1     -26.386 -14.852  19.914  0.00  0.00    -0.481 OA
ATOM     28  H   UNL     1     -26.649 -15.521  19.198  0.00  0.00    +0.295 HD
ENDBRANCH  25  27
ENDBRANCH  24  25
ENDBRANCH  16  24
ENDBRANCH   3  16
TORSDOF 9
ENDMDL
MODEL 6
REMARK VINA RESULT:    -4.287      2.802      6.696
REMARK INTER + INTRA:          -8.183
REMARK INTER:                  -6.366
REMARK INTRA:                  -1.818
REMARK UNBOUND:                -1.766
REMARK  Name = 
REMARK  11 active torsions:
REMARK  status: ('A' for Active; 'I' for Inactive)
REMARK    1  A    between atoms: C_1  and  O_2
REMARK    2  A    between atoms: O_2  and  C_3
REMARK    3  A    between atoms: C_6  and  C_11
REMARK    4  A    between atoms: C_8  and  O_9
REMARK    5  A    between atoms: O_9  and  C_10
REMARK    6  A    between atoms: C_11  and  C_12
REMARK    7  A    between atoms: N_14  and  C_15
REMARK    8  A    between atoms: C_15  and  C_16
REMARK    9  A    between atoms: C_15  and  C_20
REMARK   10  A    between atoms: C_16  and  C_17
REMARK   11  A    between atoms: C_17  and  O_19
REMARK                            x       y       z     vdW  Elec       q    Type
REMARK                         _______ _______ _______ _____ _____    ______ ____
ROOT
ATOM      1  C   UNL     1     -32.091 -11.744  19.488  0.00  0.00    +0.218 C 
ATOM      2  O   UNL     1     -33.193 -12.277  19.789  0.00  0.00    -0.275 OA
ATOM      3  N   UNL     1     -31.721 -11.562  18.114  0.00  0.00    -0.308 N 
ATOM      4  H   UNL     1     -30.851 -11.022  17.899  0.00  0.00    +0.149 HD
ENDROOT
BRANCH   1   5
ATOM      5  C   UNL     1     -31.136 -11.360  20.576  0.00  0.00    +0.131 C 
BRANCH   5   9
ATOM      6  C   UNL     1     -27.315 -13.301  20.022  0.00  0.00    +0.161 A 
ATOM      7  C   UNL     1     -28.315 -13.906  20.808  0.00  0.00    +0.049 A 
ATOM      8  C   UNL     1     -29.553 -13.283  20.978  0.00  0.00    +0.008 A 
ATOM      9  C   UNL     1     -29.818 -12.053  20.359  0.00  0.00    -0.035 A 
ATOM     10  C   UNL     1     -28.819 -11.439  19.589  0.00  0.00    +0.053 A 
ATOM     11  C   UNL     1     -27.566 -12.060  19.414  0.00  0.00    +0.162 A 
BRANCH   6  13
ATOM     12  C   UNL     1     -25.281 -14.502  20.849  0.00  0.00    +0.277 C 
ATOM     13  O   UNL     1     -26.061 -13.899  19.822  0.00  0.00    -0.491 OA
ENDBRANCH   6  13
BRANCH  11  14
ATOM     14  O   UNL     1     -26.546 -11.475  18.646  0.00  0.00    -0.491 OA
ATOM     15  C   UNL     1     -26.766 -10.668  17.493  0.00  0.00    +0.277 C 
ENDBRANCH  11  14
ENDBRANCH   5   9
ENDBRANCH   1   5
BRANCH   3  16
ATOM     16  C   UNL     1     -32.524 -12.086  17.003  0.00  0.00    +0.114 C 
BRANCH  16  17
ATOM     17  C   UNL     1     -31.652 -12.938  16.082  0.00  0.00    -0.027 A 
ATOM     18  C   UNL     1     -31.792 -12.769  14.689  0.00  0.00    +0.008 A 
ATOM     19  C   UNL     1     -30.992 -13.486  13.796  0.00  0.00    +0.038 A 
ATOM     20  C   UNL     1     -30.029 -14.372  14.277  0.00  0.00    +0.123 A 
ATOM     21  F   UNL     1     -29.249 -15.062  13.410  0.00  0.00    -0.205 F 
ATOM     22  C   UNL     1     -29.859 -14.539  15.653  0.00  0.00    +0.038 A 
ATOM     23  C   UNL     1     -30.656 -13.823  16.552  0.00  0.00    +0.008 A 
ENDBRANCH  16  17
BRANCH  16  24
ATOM     24  C   UNL     1     -33.310 -10.930  16.339  0.00  0.00    +0.147 C 
BRANCH  24  25
ATOM     25  C   UNL     1     -32.584  -9.612  16.351  0.00  0.00    +0.307 C 
ATOM     26  O   UNL     1     -31.323  -9.599  16.341  0.00  0.00    -0.251 OA
BRANCH  25  27
ATOM     27  O   UNL     1     -33.284  -8.410  16.418  0.00  0.00    -0.481 OA
ATOM     28  H   UNL     1     -32.993  -7.605  15.872  0.00  0.00    +0.295 HD
ENDBRANCH  25  27
ENDBRANCH  24  25
ENDBRANCH  16  24
ENDBRANCH   3  16
TORSDOF 9
ENDMDL
MODEL 7
REMARK VINA RESULT:    -4.160      3.910      7.046
REMARK INTER + INTRA:          -7.994
REMARK INTER:                  -6.236
REMARK INTRA:                  -1.758
REMARK UNBOUND:                -1.766
REMARK  Name = 
REMARK  11 active torsions:
REMARK  status: ('A' for Active; 'I' for Inactive)
REMARK    1  A    between atoms: C_1  and  O_2
REMARK    2  A    between atoms: O_2  and  C_3
REMARK    3  A    between atoms: C_6  and  C_11
REMARK    4  A    between atoms: C_8  and  O_9
REMARK    5  A    between atoms: O_9  and  C_10
REMARK    6  A    between atoms: C_11  and  C_12
REMARK    7  A    between atoms: N_14  and  C_15
REMARK    8  A    between atoms: C_15  and  C_16
REMARK    9  A    between atoms: C_15  and  C_20
REMARK   10  A    between atoms: C_16  and  C_17
REMARK   11  A    between atoms: C_17  and  O_19
REMARK                            x       y       z     vdW  Elec       q    Type
REMARK                         _______ _______ _______ _____ _____    ______ ____
ROOT
ATOM      1  C   UNL     1     -29.790 -13.288  17.752  0.00  0.00    +0.218 C 
ATOM      2  O   UNL     1     -28.585 -13.179  17.394  0.00  0.00    -0.275 OA
ATOM      3  N   UNL     1     -30.823 -13.481  16.777  0.00  0.00    -0.308 N 
ATOM      4  H   UNL     1     -31.796 -13.674  17.112  0.00  0.00    +0.149 HD
ENDROOT
BRANCH   1   5
ATOM      5  C   UNL     1     -30.145 -13.145  19.199  0.00  0.00    +0.131 C 
BRANCH   5   9
ATOM      6  C   UNL     1     -32.635  -9.644  19.656  0.00  0.00    +0.161 A 
ATOM      7  C   UNL     1     -33.216 -10.920  19.526  0.00  0.00    +0.049 A 
ATOM      8  C   UNL     1     -32.411 -12.052  19.389  0.00  0.00    +0.008 A 
ATOM      9  C   UNL     1     -31.014 -11.932  19.390  0.00  0.00    -0.035 A 
ATOM     10  C   UNL     1     -30.431 -10.660  19.502  0.00  0.00    +0.053 A 
ATOM     11  C   UNL     1     -31.237  -9.513  19.639  0.00  0.00    +0.162 A 
BRANCH   6  13
ATOM     12  C   UNL     1     -34.186  -7.893  18.765  0.00  0.00    +0.277 C 
ATOM     13  O   UNL     1     -33.411  -8.483  19.803  0.00  0.00    -0.491 OA
ENDBRANCH   6  13
BRANCH  11  14
ATOM     14  O   UNL     1     -30.686  -8.227  19.758  0.00  0.00    -0.491 OA
ATOM     15  C   UNL     1     -30.589  -7.500  20.980  0.00  0.00    +0.277 C 
ENDBRANCH  11  14
ENDBRANCH   5   9
ENDBRANCH   1   5
BRANCH   3  16
ATOM     16  C   UNL     1     -30.566 -13.440  15.332  0.00  0.00    +0.114 C 
BRANCH  16  17
ATOM     17  C   UNL     1     -31.768 -12.842  14.603  0.00  0.00    -0.027 A 
ATOM     18  C   UNL     1     -32.527 -11.856  15.268  0.00  0.00    +0.008 A 
ATOM     19  C   UNL     1     -33.611 -11.241  14.638  0.00  0.00    +0.038 A 
ATOM     20  C   UNL     1     -33.948 -11.587  13.329  0.00  0.00    +0.123 A 
ATOM     21  F   UNL     1     -34.996 -10.984  12.717  0.00  0.00    -0.205 F 
ATOM     22  C   UNL     1     -33.197 -12.545  12.646  0.00  0.00    +0.038 A 
ATOM     23  C   UNL     1     -32.110 -13.164  13.271  0.00  0.00    +0.008 A 
ENDBRANCH  16  17
BRANCH  16  24
ATOM     24  C   UNL     1     -30.084 -14.829  14.850  0.00  0.00    +0.147 C 
BRANCH  24  25
ATOM     25  C   UNL     1     -28.650 -14.853  14.390  0.00  0.00    +0.307 C 
ATOM     26  O   UNL     1     -28.393 -15.062  13.174  0.00  0.00    -0.251 OA
BRANCH  25  27
ATOM     27  O   UNL     1     -27.605 -14.693  15.297  0.00  0.00    -0.481 OA
ATOM     28  H   UNL     1     -26.644 -14.864  15.020  0.00  0.00    +0.295 HD
ENDBRANCH  25  27
ENDBRANCH  24  25
ENDBRANCH  16  24
ENDBRANCH   3  16
TORSDOF 9
ENDMDL
