MODEL 1
REMARK VINA RESULT:    -4.942      0.000      0.000
REMARK INTER + INTRA:          -6.419
REMARK INTER:                  -6.098
REMARK INTRA:                  -0.321
REMARK UNBOUND:                -0.321
REMARK  Name = 
REMARK  4 active torsions:
REMARK  status: ('A' for Active; 'I' for Inactive)
REMARK    1  A    between atoms: C_2  and  C_3
REMARK    2  A    between atoms: N_13  and  C_14
REMARK    3  A    between atoms: C_14  and  C_15
REMARK    4  A    between atoms: C_19  and  N_21
REMARK                            x       y       z     vdW  Elec       q    Type
REMARK                         _______ _______ _______ _____ _____    ______ ____
ROOT
ATOM      1  C   UNL     1     -27.279 -13.110  20.129  0.00  0.00    +0.052 A 
ATOM      2  C   UNL     1     -28.434 -13.625  20.731  0.00  0.00    +0.021 A 
ATOM      3  C   UNL     1     -29.698 -13.200  20.309  0.00  0.00    +0.029 A 
ATOM      4  C   UNL     1     -29.814 -12.258  19.283  0.00  0.00    +0.073 A 
ATOM      5  N   UNL     1     -31.041 -11.841  18.872  0.00  0.00    -0.232 NA
ATOM      6  C   UNL     1     -31.204 -10.923  17.879  0.00  0.00    +0.120 A 
ATOM      7  C   UNL     1     -30.069 -10.388  17.245  0.00  0.00    +0.044 A 
ATOM      8  C   UNL     1     -28.794 -10.794  17.646  0.00  0.00    +0.013 A 
ATOM      9  C   UNL     1     -28.653 -11.735  18.673  0.00  0.00    +0.002 A 
ATOM     10  C   UNL     1     -27.388 -12.165  19.099  0.00  0.00    +0.029 A 
ATOM     11  N   UNL     1     -32.539 -10.536  17.508  0.00  0.00    -0.325 N 
ATOM     12  H   UNL     1     -33.336 -11.042  17.956  0.00  0.00    +0.148 HD
ENDROOT
BRANCH   1  14
ATOM     13  N   UNL     1     -24.938 -13.905  20.919  0.00  0.00    -0.191 NA
ATOM     14  C   UNL     1     -25.980 -13.551  20.567  0.00  0.00    +0.099 C 
ENDBRANCH   1  14
BRANCH  11  15
ATOM     15  C   UNL     1     -32.863  -9.443  16.590  0.00  0.00    +0.138 C 
BRANCH  15  16
ATOM     16  C   UNL     1     -33.483  -9.976  15.325  0.00  0.00    -0.028 A 
ATOM     17  C   UNL     1     -34.495  -9.257  14.670  0.00  0.00    +0.005 A 
ATOM     18  C   UNL     1     -35.062  -9.754  13.496  0.00  0.00    +0.003 A 
ATOM     19  C   UNL     1     -34.620 -10.964  12.958  0.00  0.00    +0.033 A 
ATOM     20  C   UNL     1     -33.599 -11.694  13.590  0.00  0.00    +0.127 A 
ATOM     21  C   UNL     1     -33.032 -11.187  14.775  0.00  0.00    +0.038 A 
BRANCH  20  22
ATOM     22  N   UNL     1     -33.142 -12.939  13.031  0.00  0.00    +0.056 N 
ATOM     23  O   UNL     1     -33.848 -13.555  12.024  0.00  0.00    -0.126 OA
ATOM     24  O   UNL     1     -32.100 -13.484  13.453  0.00  0.00    -0.126 OA
ENDBRANCH  20  22
ENDBRANCH  15  16
ENDBRANCH  11  15
TORSDOF 4
ENDMDL
MODEL 2
REMARK VINA RESULT:    -4.268      4.547      6.126
REMARK INTER + INTRA:          -5.588
REMARK INTER:                  -5.319
REMARK INTRA:                  -0.269
REMARK UNBOUND:                -0.321
REMARK  Name = 
REMARK  4 active torsions:
REMARK  status: ('A' for Active; 'I' for Inactive)
REMARK    1  A    between atoms: C_2  and  C_3
REMARK    2  A    between atoms: N_13  and  C_14
REMARK    3  A    between atoms: C_14  and  C_15
REMARK    4  A    between atoms: C_19  and  N_21
REMARK                            x       y       z     vdW  Elec       q    Type
REMARK                         _______ _______ _______ _____ _____    ______ ____
ROOT
ATOM      1  C   UNL     1     -29.593 -14.221  13.829  0.00  0.00    +0.052 A 
ATOM      2  C   UNL     1     -29.519 -14.792  15.106  0.00  0.00    +0.021 A 
ATOM      3  C   UNL     1     -30.362 -14.343  16.128  0.00  0.00    +0.029 A 
ATOM      4  C   UNL     1     -31.284 -13.321  15.878  0.00  0.00    +0.073 A 
ATOM      5  N   UNL     1     -32.103 -12.881  16.870  0.00  0.00    -0.232 NA
ATOM      6  C   UNL     1     -33.014 -11.888  16.675  0.00  0.00    +0.120 A 
ATOM      7  C   UNL     1     -33.123 -11.295  15.405  0.00  0.00    +0.044 A 
ATOM      8  C   UNL     1     -32.294 -11.724  14.366  0.00  0.00    +0.013 A 
ATOM      9  C   UNL     1     -31.362 -12.743  14.592  0.00  0.00    +0.002 A 
ATOM     10  C   UNL     1     -30.515 -13.197  13.571  0.00  0.00    +0.029 A 
ATOM     11  N   UNL     1     -33.839 -11.481  17.780  0.00  0.00    -0.325 N 
ATOM     12  H   UNL     1     -33.770 -12.027  18.669  0.00  0.00    +0.148 HD
ENDROOT
BRANCH   1  14
ATOM     13  N   UNL     1     -28.024 -15.062  11.939  0.00  0.00    -0.191 NA
ATOM     14  C   UNL     1     -28.723 -14.688  12.781  0.00  0.00    +0.099 C 
ENDBRANCH   1  14
BRANCH  11  15
ATOM     15  C   UNL     1     -34.730 -10.319  17.770  0.00  0.00    +0.138 C 
BRANCH  15  16
ATOM     16  C   UNL     1     -34.029  -9.106  18.322  0.00  0.00    -0.028 A 
ATOM     17  C   UNL     1     -34.657  -7.850  18.302  0.00  0.00    +0.005 A 
ATOM     18  C   UNL     1     -34.004  -6.730  18.820  0.00  0.00    +0.003 A 
ATOM     19  C   UNL     1     -32.727  -6.852  19.370  0.00  0.00    +0.033 A 
ATOM     20  C   UNL     1     -32.085  -8.101  19.413  0.00  0.00    +0.127 A 
ATOM     21  C   UNL     1     -32.749  -9.227  18.888  0.00  0.00    +0.038 A 
BRANCH  20  22
ATOM     22  N   UNL     1     -30.770  -8.225  19.984  0.00  0.00    +0.056 N 
ATOM     23  O   UNL     1     -30.442  -7.550  21.137  0.00  0.00    -0.126 OA
ATOM     24  O   UNL     1     -29.904  -8.945  19.443  0.00  0.00    -0.126 OA
ENDBRANCH  20  22
ENDBRANCH  15  16
ENDBRANCH  11  15
TORSDOF 4
ENDMDL
MODEL 3
REMARK VINA RESULT:    -4.254      3.117      3.728
REMARK INTER + INTRA:          -5.570
REMARK INTER:                  -5.171
REMARK INTRA:                  -0.399
REMARK UNBOUND:                -0.321
REMARK  Name = 
REMARK  4 active torsions:
REMARK  status: ('A' for Active; 'I' for Inactive)
REMARK    1  A    between atoms: C_2  and  C_3
REMARK    2  A    between atoms: N_13  and  C_14
REMARK    3  A    between atoms: C_14  and  C_15
REMARK    4  A    between atoms: C_19  and  N_21
REMARK                            x       y       z     vdW  Elec       q    Type
REMARK                         _______ _______ _______ _____ _____    ______ ____
ROOT
ATOM      1  C   UNL     1     -27.416 -13.383  20.248  0.00  0.00    +0.052 A 
ATOM      2  C   UNL     1     -28.418 -13.346  21.227  0.00  0.00    +0.021 A 
ATOM      3  C   UNL     1     -29.754 -13.160  20.860  0.00  0.00    +0.029 A 
ATOM      4  C   UNL     1     -30.097 -13.010  19.513  0.00  0.00    +0.073 A 
ATOM      5  N   UNL     1     -31.395 -12.827  19.153  0.00  0.00    -0.232 NA
ATOM      6  C   UNL     1     -31.777 -12.673  17.855  0.00  0.00    +0.120 A 
ATOM      7  C   UNL     1     -30.801 -12.711  16.843  0.00  0.00    +0.044 A 
ATOM      8  C   UNL     1     -29.459 -12.895  17.181  0.00  0.00    +0.013 A 
ATOM      9  C   UNL     1     -29.091 -13.046  18.523  0.00  0.00    +0.002 A 
ATOM     10  C   UNL     1     -27.752 -13.233  18.896  0.00  0.00    +0.029 A 
ATOM     11  N   UNL     1     -33.172 -12.481  17.563  0.00  0.00    -0.325 N 
ATOM     12  H   UNL     1     -33.851 -12.557  18.354  0.00  0.00    +0.148 HD
ENDROOT
BRANCH   1  14
ATOM     13  N   UNL     1     -24.938 -13.729  20.940  0.00  0.00    -0.191 NA
ATOM     14  C   UNL     1     -26.041 -13.575  20.632  0.00  0.00    +0.099 C 
ENDBRANCH   1  14
BRANCH  11  15
ATOM     15  C   UNL     1     -33.706 -12.129  16.246  0.00  0.00    +0.138 C 
BRANCH  15  16
ATOM     16  C   UNL     1     -34.062 -10.667  16.189  0.00  0.00    -0.028 A 
ATOM     17  C   UNL     1     -34.274 -10.033  14.954  0.00  0.00    +0.005 A 
ATOM     18  C   UNL     1     -34.609  -8.679  14.908  0.00  0.00    +0.003 A 
ATOM     19  C   UNL     1     -34.744  -7.947  16.089  0.00  0.00    +0.033 A 
ATOM     20  C   UNL     1     -34.549  -8.564  17.336  0.00  0.00    +0.127 A 
ATOM     21  C   UNL     1     -34.211  -9.931  17.375  0.00  0.00    +0.038 A 
BRANCH  20  22
ATOM     22  N   UNL     1     -34.693  -7.808  18.552  0.00  0.00    +0.056 N 
ATOM     23  O   UNL     1     -34.446  -8.393  19.773  0.00  0.00    -0.126 OA
ATOM     24  O   UNL     1     -35.048  -6.611  18.522  0.00  0.00    -0.126 OA
ENDBRANCH  20  22
ENDBRANCH  15  16
ENDBRANCH  11  15
TORSDOF 4
ENDMDL
MODEL 4
REMARK VINA RESULT:    -3.844      3.452      5.290
REMARK INTER + INTRA:          -5.064
REMARK INTER:                  -4.676
REMARK INTRA:                  -0.388
REMARK UNBOUND:                -0.321
REMARK  Name = 
REMARK  4 active torsions:
REMARK  status: ('A' for Active; 'I' for Inactive)
REMARK    1  A    between atoms: C_2  and  C_3
REMARK    2  A    between atoms: N_13  and  C_14
REMARK    3  A    between atoms: C_14  and  C_15
REMARK    4  A    between atoms: C_19  and  N_21
REMARK                            x       y       z     vdW  Elec       q    Type
REMARK                         _______ _______ _______ _____ _____    ______ ____
ROOT
ATOM      1  C   UNL     1     -31.622  -7.604  20.225  0.00  0.00    +0.052 A 
ATOM      2  C   UNL     1     -32.856  -7.898  19.628  0.00  0.00    +0.021 A 
ATOM      3  C   UNL     1     -33.036  -9.103  18.942  0.00  0.00    +0.029 A 
ATOM      4  C   UNL     1     -31.985 -10.021  18.848  0.00  0.00    +0.073 A 
ATOM      5  N   UNL     1     -32.157 -11.192  18.180  0.00  0.00    -0.232 NA
ATOM      6  C   UNL     1     -31.162 -12.115  18.060  0.00  0.00    +0.120 A 
ATOM      7  C   UNL     1     -29.912 -11.859  18.652  0.00  0.00    +0.044 A 
ATOM      8  C   UNL     1     -29.704 -10.663  19.343  0.00  0.00    +0.013 A 
ATOM      9  C   UNL     1     -30.741  -9.729  19.448  0.00  0.00    +0.002 A 
ATOM     10  C   UNL     1     -30.565  -8.519  20.135  0.00  0.00    +0.029 A 
ATOM     11  N   UNL     1     -31.428 -13.327  17.333  0.00  0.00    -0.325 N 
ATOM     12  H   UNL     1     -32.405 -13.492  17.001  0.00  0.00    +0.148 HD
ENDROOT
BRANCH   1  14
ATOM     13  N   UNL     1     -31.298  -5.364  21.496  0.00  0.00    -0.191 NA
ATOM     14  C   UNL     1     -31.443  -6.361  20.930  0.00  0.00    +0.099 C 
ENDBRANCH   1  14
BRANCH  11  15
ATOM     15  C   UNL     1     -30.416 -14.321  16.974  0.00  0.00    +0.138 C 
BRANCH  15  16
ATOM     16  C   UNL     1     -30.204 -14.351  15.483  0.00  0.00    -0.028 A 
ATOM     17  C   UNL     1     -29.067 -14.967  14.937  0.00  0.00    +0.005 A 
ATOM     18  C   UNL     1     -28.878 -14.996  13.555  0.00  0.00    +0.003 A 
ATOM     19  C   UNL     1     -29.824 -14.421  12.704  0.00  0.00    +0.033 A 
ATOM     20  C   UNL     1     -30.976 -13.811  13.227  0.00  0.00    +0.127 A 
ATOM     21  C   UNL     1     -31.160 -13.785  14.624  0.00  0.00    +0.038 A 
BRANCH  20  22
ATOM     22  N   UNL     1     -31.952 -13.222  12.348  0.00  0.00    +0.056 N 
ATOM     23  O   UNL     1     -33.051 -13.943  11.941  0.00  0.00    -0.126 OA
ATOM     24  O   UNL     1     -31.817 -12.050  11.937  0.00  0.00    -0.126 OA
ENDBRANCH  20  22
ENDBRANCH  15  16
ENDBRANCH  11  15
TORSDOF 4
ENDMDL
MODEL 5
REMARK VINA RESULT:    -3.816      1.231      1.989
REMARK INTER + INTRA:          -5.029
REMARK INTER:                  -4.699
REMARK INTRA:                  -0.330
REMARK UNBOUND:                -0.321
REMARK  Name = 
REMARK  4 active torsions:
REMARK  status: ('A' for Active; 'I' for Inactive)
REMARK    1  A    between atoms: C_2  and  C_3
REMARK    2  A    between atoms: N_13  and  C_14
REMARK    3  A    between atoms: C_14  and  C_15
REMARK    4  A    between atoms: C_19  and  N_21
REMARK                            x       y       z     vdW  Elec       q    Type
REMARK                         _______ _______ _______ _____ _____    ______ ____
ROOT
ATOM      1  C   UNL     1     -27.165 -13.157  20.237  0.00  0.00    +0.052 A 
ATOM      2  C   UNL     1     -26.668 -12.352  19.203  0.00  0.00    +0.021 A 
ATOM      3  C   UNL     1     -27.528 -11.510  18.491  0.00  0.00    +0.029 A 
ATOM      4  C   UNL     1     -28.889 -11.468  18.808  0.00  0.00    +0.073 A 
ATOM      5  N   UNL     1     -29.728 -10.652  18.116  0.00  0.00    -0.232 NA
ATOM      6  C   UNL     1     -31.061 -10.579  18.386  0.00  0.00    +0.120 A 
ATOM      7  C   UNL     1     -31.596 -11.366  19.422  0.00  0.00    +0.044 A 
ATOM      8  C   UNL     1     -30.760 -12.216  20.149  0.00  0.00    +0.013 A 
ATOM      9  C   UNL     1     -29.395 -12.276  19.849  0.00  0.00    +0.002 A 
ATOM     10  C   UNL     1     -28.528 -13.119  20.560  0.00  0.00    +0.029 A 
ATOM     11  N   UNL     1     -31.877  -9.691  17.603  0.00  0.00    -0.325 N 
ATOM     12  H   UNL     1     -31.399  -9.068  16.914  0.00  0.00    +0.148 HD
ENDROOT
BRANCH   1  14
ATOM     13  N   UNL     1     -25.559 -14.716  21.553  0.00  0.00    -0.191 NA
ATOM     14  C   UNL     1     -26.275 -14.021  20.967  0.00  0.00    +0.099 C 
ENDBRANCH   1  14
BRANCH  11  15
ATOM     15  C   UNL     1     -33.339  -9.637  17.660  0.00  0.00    +0.138 C 
BRANCH  15  16
ATOM     16  C   UNL     1     -33.920  -9.472  16.280  0.00  0.00    -0.028 A 
ATOM     17  C   UNL     1     -34.521  -8.262  15.900  0.00  0.00    +0.005 A 
ATOM     18  C   UNL     1     -35.053  -8.114  14.618  0.00  0.00    +0.003 A 
ATOM     19  C   UNL     1     -34.984  -9.165  13.702  0.00  0.00    +0.033 A 
ATOM     20  C   UNL     1     -34.375 -10.380  14.056  0.00  0.00    +0.127 A 
ATOM     21  C   UNL     1     -33.841 -10.523  15.352  0.00  0.00    +0.038 A 
BRANCH  20  22
ATOM     22  N   UNL     1     -34.301 -11.461  13.109  0.00  0.00    +0.056 N 
ATOM     23  O   UNL     1     -33.764 -12.674  13.472  0.00  0.00    -0.126 OA
ATOM     24  O   UNL     1     -34.720 -11.316  11.941  0.00  0.00    -0.126 OA
ENDBRANCH  20  22
ENDBRANCH  15  16
ENDBRANCH  11  15
TORSDOF 4
ENDMDL
MODEL 6
REMARK VINA RESULT:    -3.781      2.918      8.144
REMARK INTER + INTRA:          -4.986
REMARK INTER:                  -4.728
REMARK INTRA:                  -0.258
REMARK UNBOUND:                -0.321
REMARK  Name = 
REMARK  4 active torsions:
REMARK  status: ('A' for Active; 'I' for Inactive)
REMARK    1  A    between atoms: C_2  and  C_3
REMARK    2  A    between atoms: N_13  and  C_14
REMARK    3  A    between atoms: C_14  and  C_15
REMARK    4  A    between atoms: C_19  and  N_21
REMARK                            x       y       z     vdW  Elec       q    Type
REMARK                         _______ _______ _______ _____ _____    ______ ____
ROOT
ATOM      1  C   UNL     1     -33.908 -10.834  14.344  0.00  0.00    +0.052 A 
ATOM      2  C   UNL     1     -33.693  -9.578  14.927  0.00  0.00    +0.021 A 
ATOM      3  C   UNL     1     -33.071  -9.478  16.176  0.00  0.00    +0.029 A 
ATOM      4  C   UNL     1     -32.661 -10.633  16.849  0.00  0.00    +0.073 A 
ATOM      5  N   UNL     1     -32.058 -10.540  18.064  0.00  0.00    -0.232 NA
ATOM      6  C   UNL     1     -31.645 -11.636  18.758  0.00  0.00    +0.120 A 
ATOM      7  C   UNL     1     -31.837 -12.914  18.203  0.00  0.00    +0.044 A 
ATOM      8  C   UNL     1     -32.455 -13.043  16.957  0.00  0.00    +0.013 A 
ATOM      9  C   UNL     1     -32.875 -11.901  16.266  0.00  0.00    +0.002 A 
ATOM     10  C   UNL     1     -33.499 -11.996  15.013  0.00  0.00    +0.029 A 
ATOM     11  N   UNL     1     -31.018 -11.447  20.039  0.00  0.00    -0.325 N 
ATOM     12  H   UNL     1     -30.824 -10.468  20.347  0.00  0.00    +0.148 HD
ENDROOT
BRANCH   1  14
ATOM     13  N   UNL     1     -35.062 -11.007  12.025  0.00  0.00    -0.191 NA
ATOM     14  C   UNL     1     -34.548 -10.930  13.058  0.00  0.00    +0.099 C 
ENDBRANCH   1  14
BRANCH  11  15
ATOM     15  C   UNL     1     -30.685 -12.527  20.970  0.00  0.00    +0.138 C 
BRANCH  15  16
ATOM     16  C   UNL     1     -29.242 -12.933  20.819  0.00  0.00    -0.028 A 
ATOM     17  C   UNL     1     -28.736 -14.038  21.521  0.00  0.00    +0.005 A 
ATOM     18  C   UNL     1     -27.399 -14.412  21.374  0.00  0.00    +0.003 A 
ATOM     19  C   UNL     1     -26.559 -13.697  20.519  0.00  0.00    +0.033 A 
ATOM     20  C   UNL     1     -27.047 -12.596  19.795  0.00  0.00    +0.127 A 
ATOM     21  C   UNL     1     -28.397 -12.223  19.950  0.00  0.00    +0.038 A 
BRANCH  20  22
ATOM     22  N   UNL     1     -26.180 -11.863  18.911  0.00  0.00    +0.056 N 
ATOM     23  O   UNL     1     -26.704 -11.052  17.931  0.00  0.00    -0.126 OA
ATOM     24  O   UNL     1     -24.938 -11.953  19.016  0.00  0.00    -0.126 OA
ENDBRANCH  20  22
ENDBRANCH  15  16
ENDBRANCH  11  15
TORSDOF 4
ENDMDL
MODEL 7
REMARK VINA RESULT:    -3.728      4.774      7.050
REMARK INTER + INTRA:          -4.921
REMARK INTER:                  -4.547
REMARK INTRA:                  -0.374
REMARK UNBOUND:                -0.321
REMARK  Name = 
REMARK  4 active torsions:
REMARK  status: ('A' for Active; 'I' for Inactive)
REMARK    1  A    between atoms: C_2  and  C_3
REMARK    2  A    between atoms: N_13  and  C_14
REMARK    3  A    between atoms: C_14  and  C_15
REMARK    4  A    between atoms: C_19  and  N_21
REMARK                            x       y       z     vdW  Elec       q    Type
REMARK                         _______ _______ _______ _____ _____    ______ ____
ROOT
ATOM      1  C   UNL     1     -30.154 -13.990  13.758  0.00  0.00    +0.052 A 
ATOM      2  C   UNL     1     -31.426 -13.510  13.419  0.00  0.00    +0.021 A 
ATOM      3  C   UNL     1     -32.243 -12.931  14.395  0.00  0.00    +0.029 A 
ATOM      4  C   UNL     1     -31.792 -12.828  15.715  0.00  0.00    +0.073 A 
ATOM      5  N   UNL     1     -32.585 -12.267  16.666  0.00  0.00    -0.232 NA
ATOM      6  C   UNL     1     -32.192 -12.147  17.965  0.00  0.00    +0.120 A 
ATOM      7  C   UNL     1     -30.919 -12.610  18.342  0.00  0.00    +0.044 A 
ATOM      8  C   UNL     1     -30.082 -13.193  17.388  0.00  0.00    +0.013 A 
ATOM      9  C   UNL     1     -30.511 -13.309  16.061  0.00  0.00    +0.002 A 
ATOM     10  C   UNL     1     -29.696 -13.889  15.078  0.00  0.00    +0.029 A 
ATOM     11  N   UNL     1     -33.095 -11.544  18.908  0.00  0.00    -0.325 N 
ATOM     12  H   UNL     1     -33.985 -11.138  18.540  0.00  0.00    +0.148 HD
ENDROOT
BRANCH   1  14
ATOM     13  N   UNL     1     -28.644 -15.062  11.938  0.00  0.00    -0.191 NA
ATOM     14  C   UNL     1     -29.317 -14.585  12.748  0.00  0.00    +0.099 C 
ENDBRANCH   1  14
BRANCH  11  15
ATOM     15  C   UNL     1     -32.883 -11.507  20.356  0.00  0.00    +0.138 C 
BRANCH  15  16
ATOM     16  C   UNL     1     -33.063 -10.109  20.885  0.00  0.00    -0.028 A 
ATOM     17  C   UNL     1     -34.236  -9.751  21.570  0.00  0.00    +0.005 A 
ATOM     18  C   UNL     1     -34.395  -8.455  22.062  0.00  0.00    +0.003 A 
ATOM     19  C   UNL     1     -33.385  -7.507  21.887  0.00  0.00    +0.033 A 
ATOM     20  C   UNL     1     -32.197  -7.846  21.217  0.00  0.00    +0.127 A 
ATOM     21  C   UNL     1     -32.044  -9.156  20.722  0.00  0.00    +0.038 A 
BRANCH  20  22
ATOM     22  N   UNL     1     -31.156  -6.869  21.040  0.00  0.00    +0.056 N 
ATOM     23  O   UNL     1     -31.359  -5.558  21.406  0.00  0.00    -0.126 OA
ATOM     24  O   UNL     1     -30.053  -7.191  20.551  0.00  0.00    -0.126 OA
ENDBRANCH  20  22
ENDBRANCH  15  16
ENDBRANCH  11  15
TORSDOF 4
ENDMDL
MODEL 8
REMARK VINA RESULT:    -3.620      4.564      6.711
REMARK INTER + INTRA:          -4.788
REMARK INTER:                  -4.308
REMARK INTRA:                  -0.480
REMARK UNBOUND:                -0.321
REMARK  Name = 
REMARK  4 active torsions:
REMARK  status: ('A' for Active; 'I' for Inactive)
REMARK    1  A    between atoms: C_2  and  C_3
REMARK    2  A    between atoms: N_13  and  C_14
REMARK    3  A    between atoms: C_14  and  C_15
REMARK    4  A    between atoms: C_19  and  N_21
REMARK                            x       y       z     vdW  Elec       q    Type
REMARK                         _______ _______ _______ _____ _____    ______ ____
ROOT
ATOM      1  C   UNL     1     -30.197 -14.240  14.362  0.00  0.00    +0.052 A 
ATOM      2  C   UNL     1     -29.487 -14.752  15.456  0.00  0.00    +0.021 A 
ATOM      3  C   UNL     1     -29.811 -14.353  16.756  0.00  0.00    +0.029 A 
ATOM      4  C   UNL     1     -30.848 -13.439  16.970  0.00  0.00    +0.073 A 
ATOM      5  N   UNL     1     -31.164 -13.047  18.233  0.00  0.00    -0.232 NA
ATOM      6  C   UNL     1     -32.163 -12.158  18.491  0.00  0.00    +0.120 A 
ATOM      7  C   UNL     1     -32.904 -11.627  17.420  0.00  0.00    +0.044 A 
ATOM      8  C   UNL     1     -32.601 -12.008  16.112  0.00  0.00    +0.013 A 
ATOM      9  C   UNL     1     -31.567 -12.920  15.872  0.00  0.00    +0.002 A 
ATOM     10  C   UNL     1     -31.237 -13.324  14.570  0.00  0.00    +0.029 A 
ATOM     11  N   UNL     1     -32.429 -11.795  19.858  0.00  0.00    -0.325 N 
ATOM     12  H   UNL     1     -31.904 -12.298  20.607  0.00  0.00    +0.148 HD
ENDROOT
BRANCH   1  14
ATOM     13  N   UNL     1     -29.587 -14.989  11.953  0.00  0.00    -0.191 NA
ATOM     14  C   UNL     1     -29.859 -14.655  13.026  0.00  0.00    +0.099 C 
ENDBRANCH   1  14
BRANCH  11  15
ATOM     15  C   UNL     1     -33.344 -10.730  20.272  0.00  0.00    +0.138 C 
BRANCH  15  16
ATOM     16  C   UNL     1     -32.600  -9.436  20.469  0.00  0.00    -0.028 A 
ATOM     17  C   UNL     1     -31.463  -9.385  21.291  0.00  0.00    +0.005 A 
ATOM     18  C   UNL     1     -30.775  -8.184  21.465  0.00  0.00    +0.003 A 
ATOM     19  C   UNL     1     -31.206  -7.025  20.816  0.00  0.00    +0.033 A 
ATOM     20  C   UNL     1     -32.334  -7.055  19.978  0.00  0.00    +0.127 A 
ATOM     21  C   UNL     1     -33.024  -8.271  19.807  0.00  0.00    +0.038 A 
BRANCH  20  22
ATOM     22  N   UNL     1     -32.774  -5.861  19.307  0.00  0.00    +0.056 N 
ATOM     23  O   UNL     1     -34.090  -5.714  18.932  0.00  0.00    -0.126 OA
ATOM     24  O   UNL     1     -31.971  -4.940  19.050  0.00  0.00    -0.126 OA
ENDBRANCH  20  22
ENDBRANCH  15  16
ENDBRANCH  11  15
TORSDOF 4
ENDMDL
MODEL 9
REMARK VINA RESULT:    -3.586      4.797      6.568
REMARK INTER + INTRA:          -4.746
REMARK INTER:                  -4.505
REMARK INTRA:                  -0.241
REMARK UNBOUND:                -0.321
REMARK  Name = 
REMARK  4 active torsions:
REMARK  status: ('A' for Active; 'I' for Inactive)
REMARK    1  A    between atoms: C_2  and  C_3
REMARK    2  A    between atoms: N_13  and  C_14
REMARK    3  A    between atoms: C_14  and  C_15
REMARK    4  A    between atoms: C_19  and  N_21
REMARK                            x       y       z     vdW  Elec       q    Type
REMARK                         _______ _______ _______ _____ _____    ______ ____
ROOT
ATOM      1  C   UNL     1     -30.698 -13.668  15.579  0.00  0.00    +0.052 A 
ATOM      2  C   UNL     1     -31.408 -14.258  16.634  0.00  0.00    +0.021 A 
ATOM      3  C   UNL     1     -32.342 -13.512  17.358  0.00  0.00    +0.029 A 
ATOM      4  C   UNL     1     -32.572 -12.171  17.034  0.00  0.00    +0.073 A 
ATOM      5  N   UNL     1     -33.479 -11.443  17.738  0.00  0.00    -0.232 NA
ATOM      6  C   UNL     1     -33.735 -10.134  17.461  0.00  0.00    +0.120 A 
ATOM      7  C   UNL     1     -33.048  -9.508  16.405  0.00  0.00    +0.044 A 
ATOM      8  C   UNL     1     -32.109 -10.229  15.665  0.00  0.00    +0.013 A 
ATOM      9  C   UNL     1     -31.861 -11.572  15.972  0.00  0.00    +0.002 A 
ATOM     10  C   UNL     1     -30.924 -12.325  15.248  0.00  0.00    +0.029 A 
ATOM     11  N   UNL     1     -34.708  -9.436  18.258  0.00  0.00    -0.325 N 
ATOM     12  H   UNL     1     -35.246  -9.987  18.964  0.00  0.00    +0.148 HD
ENDROOT
BRANCH   1  14
ATOM     13  N   UNL     1     -28.966 -15.062  14.240  0.00  0.00    -0.191 NA
ATOM     14  C   UNL     1     -29.738 -14.441  14.836  0.00  0.00    +0.099 C 
ENDBRANCH   1  14
BRANCH  11  15
ATOM     15  C   UNL     1     -34.958  -7.995  18.193  0.00  0.00    +0.138 C 
BRANCH  15  16
ATOM     16  C   UNL     1     -34.265  -7.283  19.325  0.00  0.00    -0.028 A 
ATOM     17  C   UNL     1     -35.005  -6.541  20.260  0.00  0.00    +0.005 A 
ATOM     18  C   UNL     1     -34.358  -5.888  21.309  0.00  0.00    +0.003 A 
ATOM     19  C   UNL     1     -32.971  -5.974  21.444  0.00  0.00    +0.033 A 
ATOM     20  C   UNL     1     -32.212  -6.721  20.528  0.00  0.00    +0.127 A 
ATOM     21  C   UNL     1     -32.871  -7.378  19.471  0.00  0.00    +0.038 A 
BRANCH  20  22
ATOM     22  N   UNL     1     -30.782  -6.813  20.671  0.00  0.00    +0.056 N 
ATOM     23  O   UNL     1     -30.096  -5.894  21.431  0.00  0.00    -0.126 OA
ATOM     24  O   UNL     1     -30.141  -7.724  20.106  0.00  0.00    -0.126 OA
ENDBRANCH  20  22
ENDBRANCH  15  16
ENDBRANCH  11  15
TORSDOF 4
ENDMDL
