MODEL 1
REMARK VINA RESULT:    -3.699      0.000      0.000
REMARK INTER + INTRA:          -5.154
REMARK INTER:                  -4.564
REMARK INTRA:                  -0.591
REMARK UNBOUND:                -0.591
REMARK  Name = 
REMARK  6 active torsions:
REMARK  status: ('A' for Active; 'I' for Inactive)
REMARK    1  A    between atoms: C_1  and  C_2
REMARK    2  A    between atoms: C_2  and  C_3
REMARK    3  A    between atoms: C_3  and  C_4
REMARK    4  A    between atoms: C_3  and  N_6
REMARK    5  A    between atoms: C_4  and  C_5
REMARK    6  A    between atoms: C_10  and  N_14
REMARK                            x       y       z     vdW  Elec       q    Type
REMARK                         _______ _______ _______ _____ _____    ______ ____
ROOT
ATOM      1  N   UNL     1     -31.299 -13.115  19.836  0.00  0.00    -0.311 N 
ATOM      2  C   UNL     1     -29.870 -13.167  19.936  0.00  0.00    +0.217 A 
ATOM      3  N   UNL     1     -29.089 -12.480  19.062  0.00  0.00    -0.221 NA
ATOM      4  C   UNL     1     -27.736 -12.522  19.148  0.00  0.00    +0.150 A 
ATOM      5  C   UNL     1     -27.113 -13.271  20.156  0.00  0.00    +0.184 A 
ATOM      6  C   UNL     1     -27.940 -14.000  21.039  0.00  0.00    +0.152 A 
ATOM      7  N   UNL     1     -27.399 -14.871  22.036  0.00  0.00    -0.341 N 
ATOM      8  N   UNL     1     -29.291 -13.919  20.907  0.00  0.00    -0.198 NA
ATOM      9  H   UNL     1     -31.859 -13.643  20.544  0.00  0.00    +0.149 HD
ATOM     10  H   UNL     1     -28.038 -15.333  22.721  0.00  0.00    +0.144 HD
ATOM     11  H   UNL     1     -26.398 -15.163  22.036  0.00  0.00    +0.144 HD
ENDROOT
BRANCH   5  12
ATOM     12  N   UNL     1     -25.682 -13.253  20.276  0.00  0.00    +0.061 N 
ATOM     13  O   UNL     1     -24.938 -12.408  19.485  0.00  0.00    -0.126 OA
ATOM     14  O   UNL     1     -25.122 -13.831  21.231  0.00  0.00    -0.126 OA
ENDBRANCH   5  12
BRANCH   1  15
ATOM     15  C   UNL     1     -31.988 -12.325  18.807  0.00  0.00    +0.073 C 
BRANCH  15  17
ATOM     16  C   UNL     1     -31.915 -12.667  16.271  0.00  0.00    +0.006 C 
ATOM     17  C   UNL     1     -32.369 -13.243  17.613  0.00  0.00    +0.019 C 
ENDBRANCH  15  17
BRANCH  15  18
ATOM     18  C   UNL     1     -33.224 -11.636  19.432  0.00  0.00    +0.019 C 
ATOM     19  C   UNL     1     -32.944 -11.036  20.809  0.00  0.00    +0.006 C 
ENDBRANCH  15  18
ENDBRANCH   1  15
TORSDOF 4
ENDMDL
MODEL 2
REMARK VINA RESULT:    -3.660      1.976      2.105
REMARK INTER + INTRA:          -5.107
REMARK INTER:                  -4.522
REMARK INTRA:                  -0.584
REMARK UNBOUND:                -0.591
REMARK  Name = 
REMARK  6 active torsions:
REMARK  status: ('A' for Active; 'I' for Inactive)
REMARK    1  A    between atoms: C_1  and  C_2
REMARK    2  A    between atoms: C_2  and  C_3
REMARK    3  A    between atoms: C_3  and  C_4
REMARK    4  A    between atoms: C_3  and  N_6
REMARK    5  A    between atoms: C_4  and  C_5
REMARK    6  A    between atoms: C_10  and  N_14
REMARK                            x       y       z     vdW  Elec       q    Type
REMARK                         _______ _______ _______ _____ _____    ______ ____
ROOT
ATOM      1  N   UNL     1     -30.396 -11.214  18.971  0.00  0.00    -0.311 N 
ATOM      2  C   UNL     1     -29.208 -11.903  19.380  0.00  0.00    +0.217 A 
ATOM      3  N   UNL     1     -28.009 -11.616  18.810  0.00  0.00    -0.221 NA
ATOM      4  C   UNL     1     -26.878 -12.263  19.190  0.00  0.00    +0.150 A 
ATOM      5  C   UNL     1     -26.924 -13.238  20.195  0.00  0.00    +0.184 A 
ATOM      6  C   UNL     1     -28.183 -13.543  20.758  0.00  0.00    +0.152 A 
ATOM      7  N   UNL     1     -28.349 -14.591  21.717  0.00  0.00    -0.341 N 
ATOM      8  N   UNL     1     -29.283 -12.862  20.339  0.00  0.00    -0.198 NA
ATOM      9  H   UNL     1     -31.292 -11.454  19.454  0.00  0.00    +0.149 HD
ATOM     10  H   UNL     1     -29.279 -14.736  22.169  0.00  0.00    +0.144 HD
ATOM     11  H   UNL     1     -27.607 -15.300  21.900  0.00  0.00    +0.144 HD
ENDROOT
BRANCH   5  12
ATOM     12  N   UNL     1     -25.709 -13.866  20.634  0.00  0.00    +0.061 N 
ATOM     13  O   UNL     1     -25.442 -13.977  21.979  0.00  0.00    -0.126 OA
ATOM     14  O   UNL     1     -25.000 -14.500  19.825  0.00  0.00    -0.126 OA
ENDBRANCH   5  12
BRANCH   1  15
ATOM     15  C   UNL     1     -30.385 -10.171  17.937  0.00  0.00    +0.073 C 
BRANCH  15  17
ATOM     16  C   UNL     1     -31.812 -10.173  15.811  0.00  0.00    +0.006 C 
ATOM     17  C   UNL     1     -30.634 -10.815  16.545  0.00  0.00    +0.019 C 
ENDBRANCH  15  17
BRANCH  15  18
ATOM     18  C   UNL     1     -31.442  -9.096  18.282  0.00  0.00    +0.019 C 
ATOM     19  C   UNL     1     -31.273  -8.517  19.685  0.00  0.00    +0.006 C 
ENDBRANCH  15  18
ENDBRANCH   1  15
TORSDOF 4
ENDMDL
MODEL 3
REMARK VINA RESULT:    -3.606      1.817      2.182
REMARK INTER + INTRA:          -5.040
REMARK INTER:                  -4.367
REMARK INTRA:                  -0.674
REMARK UNBOUND:                -0.591
REMARK  Name = 
REMARK  6 active torsions:
REMARK  status: ('A' for Active; 'I' for Inactive)
REMARK    1  A    between atoms: C_1  and  C_2
REMARK    2  A    between atoms: C_2  and  C_3
REMARK    3  A    between atoms: C_3  and  C_4
REMARK    4  A    between atoms: C_3  and  N_6
REMARK    5  A    between atoms: C_4  and  C_5
REMARK    6  A    between atoms: C_10  and  N_14
REMARK                            x       y       z     vdW  Elec       q    Type
REMARK                         _______ _______ _______ _____ _____    ______ ____
ROOT
ATOM      1  N   UNL     1     -30.632 -11.846  17.792  0.00  0.00    -0.311 N 
ATOM      2  C   UNL     1     -29.452 -12.245  18.501  0.00  0.00    +0.217 A 
ATOM      3  N   UNL     1     -28.224 -11.826  18.096  0.00  0.00    -0.221 NA
ATOM      4  C   UNL     1     -27.101 -12.198  18.759  0.00  0.00    +0.150 A 
ATOM      5  C   UNL     1     -27.187 -13.018  19.892  0.00  0.00    +0.184 A 
ATOM      6  C   UNL     1     -28.468 -13.467  20.283  0.00  0.00    +0.152 A 
ATOM      7  N   UNL     1     -28.651 -14.386  21.365  0.00  0.00    -0.341 N 
ATOM      8  N   UNL     1     -29.560 -13.061  19.581  0.00  0.00    -0.198 NA
ATOM      9  H   UNL     1     -31.555 -12.176  18.155  0.00  0.00    +0.149 HD
ATOM     10  H   UNL     1     -29.616 -14.634  21.674  0.00  0.00    +0.144 HD
ATOM     11  H   UNL     1     -27.857 -14.916  21.783  0.00  0.00    +0.144 HD
ENDROOT
BRANCH   5  12
ATOM     12  N   UNL     1     -25.996 -13.349  20.624  0.00  0.00    +0.061 N 
ATOM     13  O   UNL     1     -26.070 -13.607  21.974  0.00  0.00    -0.126 OA
ATOM     14  O   UNL     1     -24.938 -13.616  20.019  0.00  0.00    -0.126 OA
ENDBRANCH   5  12
BRANCH   1  15
ATOM     15  C   UNL     1     -30.584 -10.970  16.614  0.00  0.00    +0.073 C 
BRANCH  15  17
ATOM     16  C   UNL     1     -31.059 -12.883  14.980  0.00  0.00    +0.006 C 
ATOM     17  C   UNL     1     -31.526 -11.528  15.511  0.00  0.00    +0.019 C 
ENDBRANCH  15  17
BRANCH  15  18
ATOM     18  C   UNL     1     -30.960  -9.529  17.030  0.00  0.00    +0.019 C 
ATOM     19  C   UNL     1     -32.346  -9.429  17.665  0.00  0.00    +0.006 C 
ENDBRANCH  15  18
ENDBRANCH   1  15
TORSDOF 4
ENDMDL
MODEL 4
REMARK VINA RESULT:    -3.567      3.311      4.881
REMARK INTER + INTRA:          -4.992
REMARK INTER:                  -4.341
REMARK INTRA:                  -0.651
REMARK UNBOUND:                -0.591
REMARK  Name = 
REMARK  6 active torsions:
REMARK  status: ('A' for Active; 'I' for Inactive)
REMARK    1  A    between atoms: C_1  and  C_2
REMARK    2  A    between atoms: C_2  and  C_3
REMARK    3  A    between atoms: C_3  and  C_4
REMARK    4  A    between atoms: C_3  and  N_6
REMARK    5  A    between atoms: C_4  and  C_5
REMARK    6  A    between atoms: C_10  and  N_14
REMARK                            x       y       z     vdW  Elec       q    Type
REMARK                         _______ _______ _______ _____ _____    ______ ____
ROOT
ATOM      1  N   UNL     1     -31.054 -14.092  15.346  0.00  0.00    -0.311 N 
ATOM      2  C   UNL     1     -30.691 -13.373  16.532  0.00  0.00    +0.217 A 
ATOM      3  N   UNL     1     -30.113 -12.147  16.450  0.00  0.00    -0.221 NA
ATOM      4  C   UNL     1     -29.767 -11.458  17.566  0.00  0.00    +0.150 A 
ATOM      5  C   UNL     1     -30.012 -11.997  18.836  0.00  0.00    +0.184 A 
ATOM      6  C   UNL     1     -30.589 -13.284  18.902  0.00  0.00    +0.152 A 
ATOM      7  N   UNL     1     -30.787 -13.962  20.147  0.00  0.00    -0.341 N 
ATOM      8  N   UNL     1     -30.918 -13.929  17.750  0.00  0.00    -0.198 NA
ATOM      9  H   UNL     1     -31.515 -15.023  15.461  0.00  0.00    +0.149 HD
ATOM     10  H   UNL     1     -31.286 -14.878  20.163  0.00  0.00    +0.144 HD
ATOM     11  H   UNL     1     -30.345 -13.636  21.033  0.00  0.00    +0.144 HD
ENDROOT
BRANCH   5  12
ATOM     12  N   UNL     1     -29.702 -11.228  20.009  0.00  0.00    +0.061 N 
ATOM     13  O   UNL     1     -29.230 -11.859  21.137  0.00  0.00    -0.126 OA
ATOM     14  O   UNL     1     -29.650  -9.982  19.950  0.00  0.00    -0.126 OA
ENDBRANCH   5  12
BRANCH   1  15
ATOM     15  C   UNL     1     -30.832 -13.551  13.999  0.00  0.00    +0.073 C 
BRANCH  15  17
ATOM     16  C   UNL     1     -28.639 -14.698  13.344  0.00  0.00    +0.006 C 
ATOM     17  C   UNL     1     -30.148 -14.627  13.111  0.00  0.00    +0.019 C 
ENDBRANCH  15  17
BRANCH  15  18
ATOM     18  C   UNL     1     -32.180 -13.076  13.409  0.00  0.00    +0.019 C 
ATOM     19  C   UNL     1     -32.357 -13.450  11.938  0.00  0.00    +0.006 C 
ENDBRANCH  15  18
ENDBRANCH   1  15
TORSDOF 4
ENDMDL
MODEL 5
REMARK VINA RESULT:    -3.553      3.136      4.346
REMARK INTER + INTRA:          -4.975
REMARK INTER:                  -4.331
REMARK INTRA:                  -0.644
REMARK UNBOUND:                -0.591
REMARK  Name = 
REMARK  6 active torsions:
REMARK  status: ('A' for Active; 'I' for Inactive)
REMARK    1  A    between atoms: C_1  and  C_2
REMARK    2  A    between atoms: C_2  and  C_3
REMARK    3  A    between atoms: C_3  and  C_4
REMARK    4  A    between atoms: C_3  and  N_6
REMARK    5  A    between atoms: C_4  and  C_5
REMARK    6  A    between atoms: C_10  and  N_14
REMARK                            x       y       z     vdW  Elec       q    Type
REMARK                         _______ _______ _______ _____ _____    ______ ____
ROOT
ATOM      1  N   UNL     1     -31.706 -12.981  14.995  0.00  0.00    -0.311 N 
ATOM      2  C   UNL     1     -30.934 -12.528  16.114  0.00  0.00    +0.217 A 
ATOM      3  N   UNL     1     -30.695 -11.204  16.302  0.00  0.00    -0.221 NA
ATOM      4  C   UNL     1     -29.966 -10.765  17.358  0.00  0.00    +0.150 A 
ATOM      5  C   UNL     1     -29.452 -11.676  18.291  0.00  0.00    +0.184 A 
ATOM      6  C   UNL     1     -29.687 -13.050  18.066  0.00  0.00    +0.152 A 
ATOM      7  N   UNL     1     -29.122 -14.063  18.904  0.00  0.00    -0.341 N 
ATOM      8  N   UNL     1     -30.427 -13.433  16.990  0.00  0.00    -0.198 NA
ATOM      9  H   UNL     1     -31.882 -14.007  14.904  0.00  0.00    +0.149 HD
ATOM     10  H   UNL     1     -29.380 -15.063  18.754  0.00  0.00    +0.144 HD
ATOM     11  H   UNL     1     -28.363 -13.857  19.589  0.00  0.00    +0.144 HD
ENDROOT
BRANCH   5  12
ATOM     12  N   UNL     1     -28.739 -11.193  19.440  0.00  0.00    +0.061 N 
ATOM     13  O   UNL     1     -29.347 -10.311  20.304  0.00  0.00    -0.126 OA
ATOM     14  O   UNL     1     -27.661 -11.722  19.782  0.00  0.00    -0.126 OA
ENDBRANCH   5  12
BRANCH   1  15
ATOM     15  C   UNL     1     -32.279 -12.056  14.008  0.00  0.00    +0.073 C 
BRANCH  15  17
ATOM     16  C   UNL     1     -33.591 -12.795  11.938  0.00  0.00    +0.006 C 
ATOM     17  C   UNL     1     -32.214 -12.695  12.593  0.00  0.00    +0.019 C 
ENDBRANCH  15  17
BRANCH  15  18
ATOM     18  C   UNL     1     -33.725 -11.696  14.421  0.00  0.00    +0.019 C 
ATOM     19  C   UNL     1     -33.887 -10.233  14.830  0.00  0.00    +0.006 C 
ENDBRANCH  15  18
ENDBRANCH   1  15
TORSDOF 4
ENDMDL
MODEL 6
REMARK VINA RESULT:    -3.551      3.230      4.856
REMARK INTER + INTRA:          -4.973
REMARK INTER:                  -4.434
REMARK INTRA:                  -0.538
REMARK UNBOUND:                -0.591
REMARK  Name = 
REMARK  6 active torsions:
REMARK  status: ('A' for Active; 'I' for Inactive)
REMARK    1  A    between atoms: C_1  and  C_2
REMARK    2  A    between atoms: C_2  and  C_3
REMARK    3  A    between atoms: C_3  and  C_4
REMARK    4  A    between atoms: C_3  and  N_6
REMARK    5  A    between atoms: C_4  and  C_5
REMARK    6  A    between atoms: C_10  and  N_14
REMARK                            x       y       z     vdW  Elec       q    Type
REMARK                         _______ _______ _______ _____ _____    ______ ____
ROOT
ATOM      1  N   UNL     1     -29.228 -13.941  15.292  0.00  0.00    -0.311 N 
ATOM      2  C   UNL     1     -29.376 -13.679  16.693  0.00  0.00    +0.217 A 
ATOM      3  N   UNL     1     -30.579 -13.832  17.305  0.00  0.00    -0.221 NA
ATOM      4  C   UNL     1     -30.729 -13.587  18.631  0.00  0.00    +0.150 A 
ATOM      5  C   UNL     1     -29.633 -13.180  19.404  0.00  0.00    +0.184 A 
ATOM      6  C   UNL     1     -28.396 -13.000  18.747  0.00  0.00    +0.152 A 
ATOM      7  N   UNL     1     -27.245 -12.492  19.427  0.00  0.00    -0.341 N 
ATOM      8  N   UNL     1     -28.304 -13.262  17.415  0.00  0.00    -0.198 NA
ATOM      9  H   UNL     1     -28.278 -13.830  14.870  0.00  0.00    +0.149 HD
ATOM     10  H   UNL     1     -26.328 -12.446  18.929  0.00  0.00    +0.144 HD
ATOM     11  H   UNL     1     -27.306 -12.051  20.370  0.00  0.00    +0.144 HD
ENDROOT
BRANCH   5  12
ATOM     12  N   UNL     1     -29.791 -12.989  20.819  0.00  0.00    +0.061 N 
ATOM     13  O   UNL     1     -28.744 -13.263  21.669  0.00  0.00    -0.126 OA
ATOM     14  O   UNL     1     -30.785 -12.379  21.265  0.00  0.00    -0.126 OA
ENDBRANCH   5  12
BRANCH   1  15
ATOM     15  C   UNL     1     -30.348 -14.389  14.453  0.00  0.00    +0.073 C 
BRANCH  15  17
ATOM     16  C   UNL     1     -31.834 -13.248  12.709  0.00  0.00    +0.006 C 
ATOM     17  C   UNL     1     -31.273 -13.184  14.130  0.00  0.00    +0.019 C 
ENDBRANCH  15  17
BRANCH  15  18
ATOM     18  C   UNL     1     -29.794 -15.061  13.175  0.00  0.00    +0.019 C 
ATOM     19  C   UNL     1     -28.283 -14.898  13.018  0.00  0.00    +0.006 C 
ENDBRANCH  15  18
ENDBRANCH   1  15
TORSDOF 4
ENDMDL
MODEL 7
REMARK VINA RESULT:    -3.398      2.101      2.656
REMARK INTER + INTRA:          -4.783
REMARK INTER:                  -4.175
REMARK INTRA:                  -0.608
REMARK UNBOUND:                -0.591
REMARK  Name = 
REMARK  6 active torsions:
REMARK  status: ('A' for Active; 'I' for Inactive)
REMARK    1  A    between atoms: C_1  and  C_2
REMARK    2  A    between atoms: C_2  and  C_3
REMARK    3  A    between atoms: C_3  and  C_4
REMARK    4  A    between atoms: C_3  and  N_6
REMARK    5  A    between atoms: C_4  and  C_5
REMARK    6  A    between atoms: C_10  and  N_14
REMARK                            x       y       z     vdW  Elec       q    Type
REMARK                         _______ _______ _______ _____ _____    ______ ____
ROOT
ATOM      1  N   UNL     1     -32.562 -12.086  17.971  0.00  0.00    -0.311 N 
ATOM      2  C   UNL     1     -31.144 -12.060  18.176  0.00  0.00    +0.217 A 
ATOM      3  N   UNL     1     -30.393 -11.032  17.702  0.00  0.00    -0.221 NA
ATOM      4  C   UNL     1     -29.050 -10.999  17.891  0.00  0.00    +0.150 A 
ATOM      5  C   UNL     1     -28.408 -12.026  18.595  0.00  0.00    +0.184 A 
ATOM      6  C   UNL     1     -29.200 -13.100  19.057  0.00  0.00    +0.152 A 
ATOM      7  N   UNL     1     -28.626 -14.243  19.699  0.00  0.00    -0.341 N 
ATOM      8  N   UNL     1     -30.543 -13.081  18.841  0.00  0.00    -0.198 NA
ATOM      9  H   UNL     1     -33.101 -12.887  18.373  0.00  0.00    +0.149 HD
ATOM     10  H   UNL     1     -29.248 -14.981  20.096  0.00  0.00    +0.144 HD
ATOM     11  H   UNL     1     -27.601 -14.433  19.682  0.00  0.00    +0.144 HD
ENDROOT
BRANCH   5  12
ATOM     12  N   UNL     1     -26.996 -11.944  18.846  0.00  0.00    +0.061 N 
ATOM     13  O   UNL     1     -26.352 -12.976  19.488  0.00  0.00    -0.126 OA
ATOM     14  O   UNL     1     -26.311 -11.052  18.303  0.00  0.00    -0.126 OA
ENDBRANCH   5  12
BRANCH   1  15
ATOM     15  C   UNL     1     -33.274 -11.018  17.257  0.00  0.00    +0.073 C 
BRANCH  15  17
ATOM     16  C   UNL     1     -33.964 -11.109  14.793  0.00  0.00    +0.006 C 
ATOM     17  C   UNL     1     -34.228 -11.641  16.201  0.00  0.00    +0.019 C 
ENDBRANCH  15  17
BRANCH  15  18
ATOM     18  C   UNL     1     -34.028 -10.133  18.277  0.00  0.00    +0.019 C 
ATOM     19  C   UNL     1     -33.429  -8.734  18.417  0.00  0.00    +0.006 C 
ENDBRANCH  15  18
ENDBRANCH   1  15
TORSDOF 4
ENDMDL
MODEL 8
REMARK VINA RESULT:    -3.358      5.175      6.507
REMARK INTER + INTRA:          -4.734
REMARK INTER:                  -4.129
REMARK INTRA:                  -0.605
REMARK UNBOUND:                -0.591
REMARK  Name = 
REMARK  6 active torsions:
REMARK  status: ('A' for Active; 'I' for Inactive)
REMARK    1  A    between atoms: C_1  and  C_2
REMARK    2  A    between atoms: C_2  and  C_3
REMARK    3  A    between atoms: C_3  and  C_4
REMARK    4  A    between atoms: C_3  and  N_6
REMARK    5  A    between atoms: C_4  and  C_5
REMARK    6  A    between atoms: C_10  and  N_14
REMARK                            x       y       z     vdW  Elec       q    Type
REMARK                         _______ _______ _______ _____ _____    ______ ____
ROOT
ATOM      1  N   UNL     1     -32.599 -12.160  14.488  0.00  0.00    -0.311 N 
ATOM      2  C   UNL     1     -32.203 -11.298  15.563  0.00  0.00    +0.217 A 
ATOM      3  N   UNL     1     -30.935 -10.817  15.635  0.00  0.00    -0.221 NA
ATOM      4  C   UNL     1     -30.551 -10.000  16.648  0.00  0.00    +0.150 A 
ATOM      5  C   UNL     1     -31.466  -9.624  17.640  0.00  0.00    +0.184 A 
ATOM      6  C   UNL     1     -32.773 -10.155  17.564  0.00  0.00    +0.152 A 
ATOM      7  N   UNL     1     -33.749  -9.911  18.581  0.00  0.00    -0.341 N 
ATOM      8  N   UNL     1     -33.103 -10.968  16.525  0.00  0.00    -0.198 NA
ATOM      9  H   UNL     1     -33.591 -12.488  14.464  0.00  0.00    +0.149 HD
ATOM     10  H   UNL     1     -34.726 -10.255  18.453  0.00  0.00    +0.144 HD
ATOM     11  H   UNL     1     -33.497  -9.504  19.508  0.00  0.00    +0.144 HD
ENDROOT
BRANCH   5  12
ATOM     12  N   UNL     1     -31.064  -8.705  18.669  0.00  0.00    +0.061 N 
ATOM     13  O   UNL     1     -31.942  -7.741  19.109  0.00  0.00    -0.126 OA
ATOM     14  O   UNL     1     -30.014  -8.902  19.315  0.00  0.00    -0.126 OA
ENDBRANCH   5  12
BRANCH   1  15
ATOM     15  C   UNL     1     -31.675 -12.560  13.419  0.00  0.00    +0.073 C 
BRANCH  15  17
ATOM     16  C   UNL     1     -29.973 -14.351  12.749  0.00  0.00    +0.006 C 
ATOM     17  C   UNL     1     -30.885 -13.824  13.856  0.00  0.00    +0.019 C 
ENDBRANCH  15  17
BRANCH  15  18
ATOM     18  C   UNL     1     -32.470 -12.790  12.113  0.00  0.00    +0.019 C 
ATOM     19  C   UNL     1     -33.984 -12.732  12.314  0.00  0.00    +0.006 C 
ENDBRANCH  15  18
ENDBRANCH   1  15
TORSDOF 4
ENDMDL
MODEL 9
REMARK VINA RESULT:    -1.281      5.329      6.872
REMARK INTER + INTRA:          -2.171
REMARK INTER:                  -1.509
REMARK INTRA:                  -0.662
REMARK UNBOUND:                -0.591
REMARK  Name = 
REMARK  6 active torsions:
REMARK  status: ('A' for Active; 'I' for Inactive)
REMARK    1  A    between atoms: C_1  and  C_2
REMARK    2  A    between atoms: C_2  and  C_3
REMARK    3  A    between atoms: C_3  and  C_4
REMARK    4  A    between atoms: C_3  and  N_6
REMARK    5  A    between atoms: C_4  and  C_5
REMARK    6  A    between atoms: C_10  and  N_14
REMARK                            x       y       z     vdW  Elec       q    Type
REMARK                         _______ _______ _______ _____ _____    ______ ____
ROOT
ATOM      1  N   UNL     1     -31.580 -12.113  13.894  0.00  0.00    -0.311 N 
ATOM      2  C   UNL     1     -31.988 -11.779  15.227  0.00  0.00    +0.217 A 
ATOM      3  N   UNL     1     -32.422 -12.742  16.081  0.00  0.00    -0.221 NA
ATOM      4  C   UNL     1     -32.810 -12.437  17.345  0.00  0.00    +0.150 A 
ATOM      5  C   UNL     1     -32.757 -11.113  17.801  0.00  0.00    +0.184 A 
ATOM      6  C   UNL     1     -32.329 -10.121  16.891  0.00  0.00    +0.152 A 
ATOM      7  N   UNL     1     -32.336  -8.731  17.229  0.00  0.00    -0.341 N 
ATOM      8  N   UNL     1     -31.951 -10.485  15.637  0.00  0.00    -0.198 NA
ATOM      9  H   UNL     1     -31.234 -11.341  13.280  0.00  0.00    +0.149 HD
ATOM     10  H   UNL     1     -31.940  -8.034  16.560  0.00  0.00    +0.144 HD
ATOM     11  H   UNL     1     -32.832  -8.366  18.071  0.00  0.00    +0.144 HD
ENDROOT
BRANCH   5  12
ATOM     12  N   UNL     1     -33.107 -10.814  19.162  0.00  0.00    +0.061 N 
ATOM     13  O   UNL     1     -33.711  -9.616  19.467  0.00  0.00    -0.126 OA
ATOM     14  O   UNL     1     -33.068 -11.707  20.034  0.00  0.00    -0.126 OA
ENDBRANCH   5  12
BRANCH   1  15
ATOM     15  C   UNL     1     -31.601 -13.491  13.386  0.00  0.00    +0.073 C 
BRANCH  15  17
ATOM     16  C   UNL     1     -33.588 -12.781  11.937  0.00  0.00    +0.006 C 
ATOM     17  C   UNL     1     -32.250 -13.518  11.975  0.00  0.00    +0.019 C 
ENDBRANCH  15  17
BRANCH  15  18
ATOM     18  C   UNL     1     -30.161 -14.056  13.379  0.00  0.00    +0.019 C 
ATOM     19  C   UNL     1     -29.867 -14.964  14.572  0.00  0.00    +0.006 C 
ENDBRANCH  15  18
ENDBRANCH   1  15
TORSDOF 4
ENDMDL
