MODEL 1
REMARK VINA RESULT:    -4.944      0.000      0.000
REMARK INTER + INTRA:          -6.430
REMARK INTER:                  -6.100
REMARK INTRA:                  -0.330
REMARK UNBOUND:                -0.330
REMARK  Name = 
REMARK  4 active torsions:
REMARK  status: ('A' for Active; 'I' for Inactive)
REMARK    1  A    between atoms: C_2  and  C_3
REMARK    2  A    between atoms: N_13  and  C_14
REMARK    3  A    between atoms: C_14  and  C_15
REMARK    4  A    between atoms: C_19  and  N_21
REMARK                            x       y       z     vdW  Elec       q    Type
REMARK                         _______ _______ _______ _____ _____    ______ ____
ROOT
ATOM      1  C   UNL     1     -27.272 -13.112  20.129  0.00  0.00    +0.052 A 
ATOM      2  C   UNL     1     -28.433 -13.625  20.725  0.00  0.00    +0.021 A 
ATOM      3  C   UNL     1     -29.693 -13.199  20.295  0.00  0.00    +0.029 A 
ATOM      4  C   UNL     1     -29.800 -12.257  19.266  0.00  0.00    +0.073 A 
ATOM      5  N   UNL     1     -31.025 -11.838  18.848  0.00  0.00    -0.232 NA
ATOM      6  C   UNL     1     -31.180 -10.922  17.852  0.00  0.00    +0.120 A 
ATOM      7  C   UNL     1     -30.039 -10.390  17.225  0.00  0.00    +0.044 A 
ATOM      8  C   UNL     1     -28.768 -10.798  17.634  0.00  0.00    +0.013 A 
ATOM      9  C   UNL     1     -28.635 -11.738  18.663  0.00  0.00    +0.002 A 
ATOM     10  C   UNL     1     -27.373 -12.169  19.098  0.00  0.00    +0.029 A 
ATOM     11  N   UNL     1     -32.511 -10.532  17.473  0.00  0.00    -0.325 N 
ATOM     12  H   UNL     1     -33.312 -11.036  17.916  0.00  0.00    +0.148 HD
ENDROOT
BRANCH   1  14
ATOM     13  N   UNL     1     -24.938 -13.912  20.935  0.00  0.00    -0.191 NA
ATOM     14  C   UNL     1     -25.978 -13.556  20.576  0.00  0.00    +0.099 C 
ENDBRANCH   1  14
BRANCH  11  15
ATOM     15  C   UNL     1     -32.828  -9.440  16.552  0.00  0.00    +0.138 C 
BRANCH  15  16
ATOM     16  C   UNL     1     -33.470  -9.970  15.297  0.00  0.00    -0.028 A 
ATOM     17  C   UNL     1     -34.475  -9.238  14.646  0.00  0.00    +0.005 A 
ATOM     18  C   UNL     1     -35.062  -9.733  13.480  0.00  0.00    +0.003 A 
ATOM     19  C   UNL     1     -34.648 -10.955  12.948  0.00  0.00    +0.033 A 
ATOM     20  C   UNL     1     -33.634 -11.698  13.575  0.00  0.00    +0.127 A 
ATOM     21  C   UNL     1     -33.046 -11.194  14.751  0.00  0.00    +0.038 A 
BRANCH  20  22
ATOM     22  N   UNL     1     -33.205 -12.956  13.021  0.00  0.00    +0.056 N 
ATOM     23  O   UNL     1     -32.045 -13.553  13.458  0.00  0.00    -0.126 OA
ATOM     24  O   UNL     1     -33.876 -13.525  12.135  0.00  0.00    -0.126 OA
ENDBRANCH  20  22
ENDBRANCH  15  16
ENDBRANCH  11  15
TORSDOF 4
ENDMDL
MODEL 2
REMARK VINA RESULT:    -4.368      4.526      6.203
REMARK INTER + INTRA:          -5.720
REMARK INTER:                  -5.471
REMARK INTRA:                  -0.248
REMARK UNBOUND:                -0.330
REMARK  Name = 
REMARK  4 active torsions:
REMARK  status: ('A' for Active; 'I' for Inactive)
REMARK    1  A    between atoms: C_2  and  C_3
REMARK    2  A    between atoms: N_13  and  C_14
REMARK    3  A    between atoms: C_14  and  C_15
REMARK    4  A    between atoms: C_19  and  N_21
REMARK                            x       y       z     vdW  Elec       q    Type
REMARK                         _______ _______ _______ _____ _____    ______ ____
ROOT
ATOM      1  C   UNL     1     -29.907 -14.144  13.866  0.00  0.00    +0.052 A 
ATOM      2  C   UNL     1     -29.814 -14.704  15.147  0.00  0.00    +0.021 A 
ATOM      3  C   UNL     1     -30.607 -14.214  16.189  0.00  0.00    +0.029 A 
ATOM      4  C   UNL     1     -31.498 -13.162  15.957  0.00  0.00    +0.073 A 
ATOM      5  N   UNL     1     -32.268 -12.682  16.969  0.00  0.00    -0.232 NA
ATOM      6  C   UNL     1     -33.148 -11.657  16.792  0.00  0.00    +0.120 A 
ATOM      7  C   UNL     1     -33.275 -11.073  15.519  0.00  0.00    +0.044 A 
ATOM      8  C   UNL     1     -32.495 -11.542  14.460  0.00  0.00    +0.013 A 
ATOM      9  C   UNL     1     -31.596 -12.594  14.668  0.00  0.00    +0.002 A 
ATOM     10  C   UNL     1     -30.798 -13.089  13.626  0.00  0.00    +0.029 A 
ATOM     11  N   UNL     1     -33.923 -11.209  17.918  0.00  0.00    -0.325 N 
ATOM     12  H   UNL     1     -33.845 -11.749  18.809  0.00  0.00    +0.148 HD
ENDROOT
BRANCH   1  14
ATOM     13  N   UNL     1     -28.430 -15.061  11.938  0.00  0.00    -0.191 NA
ATOM     14  C   UNL     1     -29.088 -14.653  12.797  0.00  0.00    +0.099 C 
ENDBRANCH   1  14
BRANCH  11  15
ATOM     15  C   UNL     1     -34.770 -10.015  17.923  0.00  0.00    +0.138 C 
BRANCH  15  16
ATOM     16  C   UNL     1     -34.021  -8.833  18.478  0.00  0.00    -0.028 A 
ATOM     17  C   UNL     1     -34.651  -7.585  18.604  0.00  0.00    +0.005 A 
ATOM     18  C   UNL     1     -33.953  -6.494  19.124  0.00  0.00    +0.003 A 
ATOM     19  C   UNL     1     -32.626  -6.638  19.532  0.00  0.00    +0.033 A 
ATOM     20  C   UNL     1     -31.979  -7.880  19.427  0.00  0.00    +0.127 A 
ATOM     21  C   UNL     1     -32.689  -8.977  18.901  0.00  0.00    +0.038 A 
BRANCH  20  22
ATOM     22  N   UNL     1     -30.611  -8.027  19.852  0.00  0.00    +0.056 N 
ATOM     23  O   UNL     1     -29.847  -9.076  19.397  0.00  0.00    -0.126 OA
ATOM     24  O   UNL     1     -30.097  -7.208  20.642  0.00  0.00    -0.126 OA
ENDBRANCH  20  22
ENDBRANCH  15  16
ENDBRANCH  11  15
TORSDOF 4
ENDMDL
MODEL 3
REMARK VINA RESULT:    -4.355      1.591      2.368
REMARK INTER + INTRA:          -5.703
REMARK INTER:                  -5.645
REMARK INTRA:                  -0.059
REMARK UNBOUND:                -0.330
REMARK  Name = 
REMARK  4 active torsions:
REMARK  status: ('A' for Active; 'I' for Inactive)
REMARK    1  A    between atoms: C_2  and  C_3
REMARK    2  A    between atoms: N_13  and  C_14
REMARK    3  A    between atoms: C_14  and  C_15
REMARK    4  A    between atoms: C_19  and  N_21
REMARK                            x       y       z     vdW  Elec       q    Type
REMARK                         _______ _______ _______ _____ _____    ______ ____
ROOT
ATOM      1  C   UNL     1     -28.350 -13.250  20.181  0.00  0.00    +0.052 A 
ATOM      2  C   UNL     1     -27.549 -12.363  19.449  0.00  0.00    +0.021 A 
ATOM      3  C   UNL     1     -28.110 -11.581  18.434  0.00  0.00    +0.029 A 
ATOM      4  C   UNL     1     -29.475 -11.680  18.146  0.00  0.00    +0.073 A 
ATOM      5  N   UNL     1     -30.022 -10.922  17.159  0.00  0.00    -0.232 NA
ATOM      6  C   UNL     1     -31.345 -10.986  16.840  0.00  0.00    +0.120 A 
ATOM      7  C   UNL     1     -32.183 -11.859  17.558  0.00  0.00    +0.044 A 
ATOM      8  C   UNL     1     -31.650 -12.652  18.576  0.00  0.00    +0.013 A 
ATOM      9  C   UNL     1     -30.286 -12.571  18.881  0.00  0.00    +0.002 A 
ATOM     10  C   UNL     1     -29.719 -13.354  19.898  0.00  0.00    +0.029 A 
ATOM     11  N   UNL     1     -31.842 -10.151  15.780  0.00  0.00    -0.325 N 
ATOM     12  H   UNL     1     -31.183  -9.461  15.354  0.00  0.00    +0.148 HD
ENDROOT
BRANCH   1  14
ATOM     13  N   UNL     1     -27.299 -14.697  22.062  0.00  0.00    -0.191 NA
ATOM     14  C   UNL     1     -27.767 -14.052  21.224  0.00  0.00    +0.099 C 
ENDBRANCH   1  14
BRANCH  11  15
ATOM     15  C   UNL     1     -33.189 -10.239  15.213  0.00  0.00    +0.138 C 
BRANCH  15  16
ATOM     16  C   UNL     1     -33.224 -11.222  14.073  0.00  0.00    -0.028 A 
ATOM     17  C   UNL     1     -34.359 -11.321  13.252  0.00  0.00    +0.005 A 
ATOM     18  C   UNL     1     -34.384 -12.230  12.194  0.00  0.00    +0.003 A 
ATOM     19  C   UNL     1     -33.277 -13.042  11.938  0.00  0.00    +0.033 A 
ATOM     20  C   UNL     1     -32.125 -12.950  12.738  0.00  0.00    +0.127 A 
ATOM     21  C   UNL     1     -32.107 -12.031  13.805  0.00  0.00    +0.038 A 
BRANCH  20  22
ATOM     22  N   UNL     1     -30.984 -13.785  12.469  0.00  0.00    +0.056 N 
ATOM     23  O   UNL     1     -31.150 -15.062  11.984  0.00  0.00    -0.126 OA
ATOM     24  O   UNL     1     -29.825 -13.367  12.674  0.00  0.00    -0.126 OA
ENDBRANCH  20  22
ENDBRANCH  15  16
ENDBRANCH  11  15
TORSDOF 4
ENDMDL
MODEL 4
REMARK VINA RESULT:    -4.239      3.124      3.711
REMARK INTER + INTRA:          -5.561
REMARK INTER:                  -5.171
REMARK INTRA:                  -0.390
REMARK UNBOUND:                -0.330
REMARK  Name = 
REMARK  4 active torsions:
REMARK  status: ('A' for Active; 'I' for Inactive)
REMARK    1  A    between atoms: C_2  and  C_3
REMARK    2  A    between atoms: N_13  and  C_14
REMARK    3  A    between atoms: C_14  and  C_15
REMARK    4  A    between atoms: C_19  and  N_21
REMARK                            x       y       z     vdW  Elec       q    Type
REMARK                         _______ _______ _______ _____ _____    ______ ____
ROOT
ATOM      1  C   UNL     1     -27.419 -13.367  20.245  0.00  0.00    +0.052 A 
ATOM      2  C   UNL     1     -28.420 -13.351  21.225  0.00  0.00    +0.021 A 
ATOM      3  C   UNL     1     -29.758 -13.170  20.861  0.00  0.00    +0.029 A 
ATOM      4  C   UNL     1     -30.102 -13.004  19.516  0.00  0.00    +0.073 A 
ATOM      5  N   UNL     1     -31.403 -12.826  19.159  0.00  0.00    -0.232 NA
ATOM      6  C   UNL     1     -31.786 -12.658  17.863  0.00  0.00    +0.120 A 
ATOM      7  C   UNL     1     -30.810 -12.676  16.850  0.00  0.00    +0.044 A 
ATOM      8  C   UNL     1     -29.466 -12.855  17.185  0.00  0.00    +0.013 A 
ATOM      9  C   UNL     1     -29.097 -13.021  18.525  0.00  0.00    +0.002 A 
ATOM     10  C   UNL     1     -27.756 -13.203  18.895  0.00  0.00    +0.029 A 
ATOM     11  N   UNL     1     -33.183 -12.473  17.574  0.00  0.00    -0.325 N 
ATOM     12  H   UNL     1     -33.861 -12.563  18.364  0.00  0.00    +0.148 HD
ENDROOT
BRANCH   1  14
ATOM     13  N   UNL     1     -24.938 -13.705  20.931  0.00  0.00    -0.191 NA
ATOM     14  C   UNL     1     -26.043 -13.554  20.626  0.00  0.00    +0.099 C 
ENDBRANCH   1  14
BRANCH  11  15
ATOM     15  C   UNL     1     -33.719 -12.108  16.262  0.00  0.00    +0.138 C 
BRANCH  15  16
ATOM     16  C   UNL     1     -34.084 -10.647  16.223  0.00  0.00    -0.028 A 
ATOM     17  C   UNL     1     -34.348 -10.011  15.000  0.00  0.00    +0.005 A 
ATOM     18  C   UNL     1     -34.691  -8.658  14.971  0.00  0.00    +0.003 A 
ATOM     19  C   UNL     1     -34.782  -7.930  16.158  0.00  0.00    +0.033 A 
ATOM     20  C   UNL     1     -34.535  -8.549  17.395  0.00  0.00    +0.127 A 
ATOM     21  C   UNL     1     -34.189  -9.915  17.417  0.00  0.00    +0.038 A 
BRANCH  20  22
ATOM     22  N   UNL     1     -34.634  -7.798  18.618  0.00  0.00    +0.056 N 
ATOM     23  O   UNL     1     -34.361  -8.392  19.829  0.00  0.00    -0.126 OA
ATOM     24  O   UNL     1     -34.972  -6.595  18.603  0.00  0.00    -0.126 OA
ENDBRANCH  20  22
ENDBRANCH  15  16
ENDBRANCH  11  15
TORSDOF 4
ENDMDL
MODEL 5
REMARK VINA RESULT:    -3.854      3.449      5.329
REMARK INTER + INTRA:          -5.085
REMARK INTER:                  -4.676
REMARK INTRA:                  -0.409
REMARK UNBOUND:                -0.330
REMARK  Name = 
REMARK  4 active torsions:
REMARK  status: ('A' for Active; 'I' for Inactive)
REMARK    1  A    between atoms: C_2  and  C_3
REMARK    2  A    between atoms: N_13  and  C_14
REMARK    3  A    between atoms: C_14  and  C_15
REMARK    4  A    between atoms: C_19  and  N_21
REMARK                            x       y       z     vdW  Elec       q    Type
REMARK                         _______ _______ _______ _____ _____    ______ ____
ROOT
ATOM      1  C   UNL     1     -31.613  -7.505  20.223  0.00  0.00    +0.052 A 
ATOM      2  C   UNL     1     -32.844  -7.759  19.604  0.00  0.00    +0.021 A 
ATOM      3  C   UNL     1     -33.058  -8.965  18.929  0.00  0.00    +0.029 A 
ATOM      4  C   UNL     1     -32.042  -9.924  18.869  0.00  0.00    +0.073 A 
ATOM      5  N   UNL     1     -32.246 -11.097  18.212  0.00  0.00    -0.232 NA
ATOM      6  C   UNL     1     -31.286 -12.059  18.125  0.00  0.00    +0.120 A 
ATOM      7  C   UNL     1     -30.040 -11.844  18.740  0.00  0.00    +0.044 A 
ATOM      8  C   UNL     1     -29.799 -10.649  19.420  0.00  0.00    +0.013 A 
ATOM      9  C   UNL     1     -30.800  -9.673  19.492  0.00  0.00    +0.002 A 
ATOM     10  C   UNL     1     -30.591  -8.462  20.167  0.00  0.00    +0.029 A 
ATOM     11  N   UNL     1     -31.585 -13.270  17.408  0.00  0.00    -0.325 N 
ATOM     12  H   UNL     1     -32.560 -13.401  17.057  0.00  0.00    +0.148 HD
ENDROOT
BRANCH   1  14
ATOM     13  N   UNL     1     -31.227  -5.263  21.473  0.00  0.00    -0.191 NA
ATOM     14  C   UNL     1     -31.399  -6.262  20.916  0.00  0.00    +0.099 C 
ENDBRANCH   1  14
BRANCH  11  15
ATOM     15  C   UNL     1     -30.605 -14.308  17.083  0.00  0.00    +0.138 C 
BRANCH  15  16
ATOM     16  C   UNL     1     -30.299 -14.308  15.608  0.00  0.00    -0.028 A 
ATOM     17  C   UNL     1     -29.099 -14.858  15.129  0.00  0.00    +0.005 A 
ATOM     18  C   UNL     1     -28.824 -14.860  13.761  0.00  0.00    +0.003 A 
ATOM     19  C   UNL     1     -29.744 -14.324  12.857  0.00  0.00    +0.033 A 
ATOM     20  C   UNL     1     -30.957 -13.781  13.313  0.00  0.00    +0.127 A 
ATOM     21  C   UNL     1     -31.228 -13.782  14.695  0.00  0.00    +0.038 A 
BRANCH  20  22
ATOM     22  N   UNL     1     -31.906 -13.234  12.379  0.00  0.00    +0.056 N 
ATOM     23  O   UNL     1     -32.979 -13.981  11.954  0.00  0.00    -0.126 OA
ATOM     24  O   UNL     1     -31.770 -12.073  11.938  0.00  0.00    -0.126 OA
ENDBRANCH  20  22
ENDBRANCH  15  16
ENDBRANCH  11  15
TORSDOF 4
ENDMDL
MODEL 6
REMARK VINA RESULT:    -3.813      2.893      8.204
REMARK INTER + INTRA:          -5.036
REMARK INTER:                  -4.767
REMARK INTRA:                  -0.268
REMARK UNBOUND:                -0.330
REMARK  Name = 
REMARK  4 active torsions:
REMARK  status: ('A' for Active; 'I' for Inactive)
REMARK    1  A    between atoms: C_2  and  C_3
REMARK    2  A    between atoms: N_13  and  C_14
REMARK    3  A    between atoms: C_14  and  C_15
REMARK    4  A    between atoms: C_19  and  N_21
REMARK                            x       y       z     vdW  Elec       q    Type
REMARK                         _______ _______ _______ _____ _____    ______ ____
ROOT
ATOM      1  C   UNL     1     -33.927 -10.885  14.288  0.00  0.00    +0.052 A 
ATOM      2  C   UNL     1     -33.766  -9.653  14.935  0.00  0.00    +0.021 A 
ATOM      3  C   UNL     1     -33.155  -9.592  16.191  0.00  0.00    +0.029 A 
ATOM      4  C   UNL     1     -32.701 -10.762  16.807  0.00  0.00    +0.073 A 
ATOM      5  N   UNL     1     -32.109 -10.706  18.030  0.00  0.00    -0.232 NA
ATOM      6  C   UNL     1     -31.653 -11.819  18.670  0.00  0.00    +0.120 A 
ATOM      7  C   UNL     1     -31.790 -13.073  18.049  0.00  0.00    +0.044 A 
ATOM      8  C   UNL     1     -32.397 -13.164  16.795  0.00  0.00    +0.013 A 
ATOM      9  C   UNL     1     -32.860 -12.006  16.159  0.00  0.00    +0.002 A 
ATOM     10  C   UNL     1     -33.474 -12.062  14.899  0.00  0.00    +0.029 A 
ATOM     11  N   UNL     1     -31.041 -11.670  19.963  0.00  0.00    -0.325 N 
ATOM     12  H   UNL     1     -30.889 -10.701  20.322  0.00  0.00    +0.148 HD
ENDROOT
BRANCH   1  14
ATOM     13  N   UNL     1     -35.062 -10.987  11.955  0.00  0.00    -0.191 NA
ATOM     14  C   UNL     1     -34.557 -10.942  12.994  0.00  0.00    +0.099 C 
ENDBRANCH   1  14
BRANCH  11  15
ATOM     15  C   UNL     1     -30.668 -12.782  20.840  0.00  0.00    +0.138 C 
BRANCH  15  16
ATOM     16  C   UNL     1     -29.194 -13.071  20.734  0.00  0.00    -0.028 A 
ATOM     17  C   UNL     1     -28.618 -14.119  21.471  0.00  0.00    +0.005 A 
ATOM     18  C   UNL     1     -27.253 -14.385  21.365  0.00  0.00    +0.003 A 
ATOM     19  C   UNL     1     -26.450 -13.618  20.519  0.00  0.00    +0.033 A 
ATOM     20  C   UNL     1     -27.006 -12.573  19.762  0.00  0.00    +0.127 A 
ATOM     21  C   UNL     1     -28.385 -12.309  19.874  0.00  0.00    +0.038 A 
BRANCH  20  22
ATOM     22  N   UNL     1     -26.177 -11.787  18.887  0.00  0.00    +0.056 N 
ATOM     23  O   UNL     1     -26.736 -11.061  17.861  0.00  0.00    -0.126 OA
ATOM     24  O   UNL     1     -24.938 -11.752  19.042  0.00  0.00    -0.126 OA
ENDBRANCH  20  22
ENDBRANCH  15  16
ENDBRANCH  11  15
TORSDOF 4
ENDMDL
MODEL 7
REMARK VINA RESULT:    -3.670      4.362      6.485
REMARK INTER + INTRA:          -4.859
REMARK INTER:                  -4.408
REMARK INTRA:                  -0.451
REMARK UNBOUND:                -0.330
REMARK  Name = 
REMARK  4 active torsions:
REMARK  status: ('A' for Active; 'I' for Inactive)
REMARK    1  A    between atoms: C_2  and  C_3
REMARK    2  A    between atoms: N_13  and  C_14
REMARK    3  A    between atoms: C_14  and  C_15
REMARK    4  A    between atoms: C_19  and  N_21
REMARK                            x       y       z     vdW  Elec       q    Type
REMARK                         _______ _______ _______ _____ _____    ______ ____
ROOT
ATOM      1  C   UNL     1     -30.168 -14.311  14.375  0.00  0.00    +0.052 A 
ATOM      2  C   UNL     1     -29.306 -14.695  15.411  0.00  0.00    +0.021 A 
ATOM      3  C   UNL     1     -29.563 -14.294  16.725  0.00  0.00    +0.029 A 
ATOM      4  C   UNL     1     -30.683 -13.507  17.012  0.00  0.00    +0.073 A 
ATOM      5  N   UNL     1     -30.934 -13.114  18.289  0.00  0.00    -0.232 NA
ATOM      6  C   UNL     1     -32.010 -12.345  18.616  0.00  0.00    +0.120 A 
ATOM      7  C   UNL     1     -32.902 -11.946  17.605  0.00  0.00    +0.044 A 
ATOM      8  C   UNL     1     -32.670 -12.332  16.283  0.00  0.00    +0.013 A 
ATOM      9  C   UNL     1     -31.554 -13.118  15.972  0.00  0.00    +0.002 A 
ATOM     10  C   UNL     1     -31.292 -13.523  14.654  0.00  0.00    +0.029 A 
ATOM     11  N   UNL     1     -32.199 -11.971  19.992  0.00  0.00    -0.325 N 
ATOM     12  H   UNL     1     -31.551 -12.380  20.702  0.00  0.00    +0.148 HD
ENDROOT
BRANCH   1  14
ATOM     13  N   UNL     1     -29.681 -15.062  11.938  0.00  0.00    -0.191 NA
ATOM     14  C   UNL     1     -29.898 -14.728  13.023  0.00  0.00    +0.099 C 
ENDBRANCH   1  14
BRANCH  11  15
ATOM     15  C   UNL     1     -33.200 -11.013  20.463  0.00  0.00    +0.138 C 
BRANCH  15  16
ATOM     16  C   UNL     1     -32.685  -9.602  20.344  0.00  0.00    -0.028 A 
ATOM     17  C   UNL     1     -31.437  -9.252  20.882  0.00  0.00    +0.005 A 
ATOM     18  C   UNL     1     -30.962  -7.945  20.764  0.00  0.00    +0.003 A 
ATOM     19  C   UNL     1     -31.721  -6.978  20.101  0.00  0.00    +0.033 A 
ATOM     20  C   UNL     1     -32.967  -7.310  19.543  0.00  0.00    +0.127 A 
ATOM     21  C   UNL     1     -33.440  -8.631  19.666  0.00  0.00    +0.038 A 
BRANCH  20  22
ATOM     22  N   UNL     1     -33.746  -6.313  18.856  0.00  0.00    +0.056 N 
ATOM     23  O   UNL     1     -33.536  -4.974  19.096  0.00  0.00    -0.126 OA
ATOM     24  O   UNL     1     -34.626  -6.644  18.035  0.00  0.00    -0.126 OA
ENDBRANCH  20  22
ENDBRANCH  15  16
ENDBRANCH  11  15
TORSDOF 4
ENDMDL
MODEL 8
REMARK VINA RESULT:    -3.584      4.927      7.154
REMARK INTER + INTRA:          -4.753
REMARK INTER:                  -4.309
REMARK INTRA:                  -0.444
REMARK UNBOUND:                -0.330
REMARK  Name = 
REMARK  4 active torsions:
REMARK  status: ('A' for Active; 'I' for Inactive)
REMARK    1  A    between atoms: C_2  and  C_3
REMARK    2  A    between atoms: N_13  and  C_14
REMARK    3  A    between atoms: C_14  and  C_15
REMARK    4  A    between atoms: C_19  and  N_21
REMARK                            x       y       z     vdW  Elec       q    Type
REMARK                         _______ _______ _______ _____ _____    ______ ____
ROOT
ATOM      1  C   UNL     1     -31.280 -13.479  13.327  0.00  0.00    +0.052 A 
ATOM      2  C   UNL     1     -32.429 -12.934  12.737  0.00  0.00    +0.021 A 
ATOM      3  C   UNL     1     -33.259 -12.080  13.469  0.00  0.00    +0.029 A 
ATOM      4  C   UNL     1     -32.947 -11.766  14.795  0.00  0.00    +0.073 A 
ATOM      5  N   UNL     1     -33.754 -10.937  15.510  0.00  0.00    -0.232 NA
ATOM      6  C   UNL     1     -33.493 -10.605  16.805  0.00  0.00    +0.120 A 
ATOM      7  C   UNL     1     -32.346 -11.125  17.430  0.00  0.00    +0.044 A 
ATOM      8  C   UNL     1     -31.498 -11.981  16.722  0.00  0.00    +0.013 A 
ATOM      9  C   UNL     1     -31.791 -12.311  15.394  0.00  0.00    +0.002 A 
ATOM     10  C   UNL     1     -30.961 -13.167  14.655  0.00  0.00    +0.029 A 
ATOM     11  N   UNL     1     -34.401  -9.724  17.489  0.00  0.00    -0.325 N 
ATOM     12  H   UNL     1     -35.180  -9.301  16.935  0.00  0.00    +0.148 HD
ENDROOT
BRANCH   1  14
ATOM     13  N   UNL     1     -29.744 -15.062  11.958  0.00  0.00    -0.191 NA
ATOM     14  C   UNL     1     -30.429 -14.357  12.568  0.00  0.00    +0.099 C 
ENDBRANCH   1  14
BRANCH  11  15
ATOM     15  C   UNL     1     -34.347  -9.421  18.920  0.00  0.00    +0.138 C 
BRANCH  15  16
ATOM     16  C   UNL     1     -33.854  -8.016  19.149  0.00  0.00    -0.028 A 
ATOM     17  C   UNL     1     -34.634  -6.915  18.762  0.00  0.00    +0.005 A 
ATOM     18  C   UNL     1     -34.174  -5.616  18.982  0.00  0.00    +0.003 A 
ATOM     19  C   UNL     1     -32.939  -5.401  19.595  0.00  0.00    +0.033 A 
ATOM     20  C   UNL     1     -32.147  -6.488  20.002  0.00  0.00    +0.127 A 
ATOM     21  C   UNL     1     -32.617  -7.797  19.777  0.00  0.00    +0.038 A 
BRANCH  20  22
ATOM     22  N   UNL     1     -30.875  -6.264  20.638  0.00  0.00    +0.056 N 
ATOM     23  O   UNL     1     -30.687  -5.178  21.461  0.00  0.00    -0.126 OA
ATOM     24  O   UNL     1     -29.922  -7.049  20.453  0.00  0.00    -0.126 OA
ENDBRANCH  20  22
ENDBRANCH  15  16
ENDBRANCH  11  15
TORSDOF 4
ENDMDL
