MODEL 1
REMARK VINA RESULT:    -4.932      0.000      0.000
REMARK INTER + INTRA:          -6.415
REMARK INTER:                  -6.086
REMARK INTRA:                  -0.329
REMARK UNBOUND:                -0.329
REMARK  Name = 
REMARK  4 active torsions:
REMARK  status: ('A' for Active; 'I' for Inactive)
REMARK    1  A    between atoms: C_2  and  C_3
REMARK    2  A    between atoms: N_13  and  C_14
REMARK    3  A    between atoms: C_14  and  C_15
REMARK    4  A    between atoms: C_19  and  N_21
REMARK                            x       y       z     vdW  Elec       q    Type
REMARK                         _______ _______ _______ _____ _____    ______ ____
ROOT
ATOM      1  C   UNL     1     -27.278 -13.114  20.135  0.00  0.00    +0.052 A 
ATOM      2  C   UNL     1     -28.438 -13.620  20.737  0.00  0.00    +0.021 A 
ATOM      3  C   UNL     1     -29.698 -13.192  20.308  0.00  0.00    +0.029 A 
ATOM      4  C   UNL     1     -29.806 -12.255  19.275  0.00  0.00    +0.073 A 
ATOM      5  N   UNL     1     -31.030 -11.836  18.858  0.00  0.00    -0.232 NA
ATOM      6  C   UNL     1     -31.186 -10.924  17.858  0.00  0.00    +0.120 A 
ATOM      7  C   UNL     1     -30.045 -10.399  17.224  0.00  0.00    +0.044 A 
ATOM      8  C   UNL     1     -28.774 -10.808  17.632  0.00  0.00    +0.013 A 
ATOM      9  C   UNL     1     -28.641 -11.743  18.665  0.00  0.00    +0.002 A 
ATOM     10  C   UNL     1     -27.379 -12.176  19.099  0.00  0.00    +0.029 A 
ATOM     11  N   UNL     1     -32.517 -10.533  17.480  0.00  0.00    -0.325 N 
ATOM     12  H   UNL     1     -33.318 -11.032  17.928  0.00  0.00    +0.148 HD
ENDROOT
BRANCH   1  14
ATOM     13  N   UNL     1     -24.944 -13.916  20.939  0.00  0.00    -0.191 NA
ATOM     14  C   UNL     1     -25.984 -13.559  20.581  0.00  0.00    +0.099 C 
ENDBRANCH   1  14
BRANCH  11  15
ATOM     15  C   UNL     1     -32.833  -9.444  16.554  0.00  0.00    +0.138 C 
BRANCH  15  16
ATOM     16  C   UNL     1     -33.469  -9.981  15.298  0.00  0.00    -0.028 A 
ATOM     17  C   UNL     1     -34.476  -9.255  14.643  0.00  0.00    +0.005 A 
ATOM     18  C   UNL     1     -35.058  -9.755  13.477  0.00  0.00    +0.003 A 
ATOM     19  C   UNL     1     -34.637 -10.977  12.949  0.00  0.00    +0.033 A 
ATOM     20  C   UNL     1     -33.621 -11.715  13.581  0.00  0.00    +0.127 A 
ATOM     21  C   UNL     1     -33.039 -11.204  14.757  0.00  0.00    +0.038 A 
BRANCH  20  22
ATOM     22  N   UNL     1     -33.186 -12.972  13.032  0.00  0.00    +0.056 N 
ATOM     23  O   UNL     1     -33.888 -13.570  12.011  0.00  0.00    -0.126 OA
ATOM     24  O   UNL     1     -32.166 -13.542  13.474  0.00  0.00    -0.126 OA
ENDBRANCH  20  22
ENDBRANCH  15  16
ENDBRANCH  11  15
TORSDOF 4
ENDMDL
MODEL 2
REMARK VINA RESULT:    -4.245      3.123      3.747
REMARK INTER + INTRA:          -5.566
REMARK INTER:                  -5.177
REMARK INTRA:                  -0.389
REMARK UNBOUND:                -0.329
REMARK  Name = 
REMARK  4 active torsions:
REMARK  status: ('A' for Active; 'I' for Inactive)
REMARK    1  A    between atoms: C_2  and  C_3
REMARK    2  A    between atoms: N_13  and  C_14
REMARK    3  A    between atoms: C_14  and  C_15
REMARK    4  A    between atoms: C_19  and  N_21
REMARK                            x       y       z     vdW  Elec       q    Type
REMARK                         _______ _______ _______ _____ _____    ______ ____
ROOT
ATOM      1  C   UNL     1     -27.421 -13.373  20.246  0.00  0.00    +0.052 A 
ATOM      2  C   UNL     1     -28.431 -13.373  21.217  0.00  0.00    +0.021 A 
ATOM      3  C   UNL     1     -29.767 -13.194  20.843  0.00  0.00    +0.029 A 
ATOM      4  C   UNL     1     -30.100 -13.014  19.497  0.00  0.00    +0.073 A 
ATOM      5  N   UNL     1     -31.398 -12.838  19.131  0.00  0.00    -0.232 NA
ATOM      6  C   UNL     1     -31.770 -12.657  17.834  0.00  0.00    +0.120 A 
ATOM      7  C   UNL     1     -30.786 -12.659  16.830  0.00  0.00    +0.044 A 
ATOM      8  C   UNL     1     -29.444 -12.835  17.174  0.00  0.00    +0.013 A 
ATOM      9  C   UNL     1     -29.086 -13.015  18.515  0.00  0.00    +0.002 A 
ATOM     10  C   UNL     1     -27.748 -13.195  18.895  0.00  0.00    +0.029 A 
ATOM     11  N   UNL     1     -33.165 -12.474  17.535  0.00  0.00    -0.325 N 
ATOM     12  H   UNL     1     -33.850 -12.578  18.318  0.00  0.00    +0.148 HD
ENDROOT
BRANCH   1  14
ATOM     13  N   UNL     1     -24.944 -13.707  20.950  0.00  0.00    -0.191 NA
ATOM     14  C   UNL     1     -26.047 -13.558  20.636  0.00  0.00    +0.099 C 
ENDBRANCH   1  14
BRANCH  11  15
ATOM     15  C   UNL     1     -33.692 -12.097  16.222  0.00  0.00    +0.138 C 
BRANCH  15  16
ATOM     16  C   UNL     1     -34.065 -10.638  16.198  0.00  0.00    -0.028 A 
ATOM     17  C   UNL     1     -34.315  -9.987  14.979  0.00  0.00    +0.005 A 
ATOM     18  C   UNL     1     -34.665  -8.636  14.963  0.00  0.00    +0.003 A 
ATOM     19  C   UNL     1     -34.778  -7.924  16.159  0.00  0.00    +0.033 A 
ATOM     20  C   UNL     1     -34.545  -8.558  17.391  0.00  0.00    +0.127 A 
ATOM     21  C   UNL     1     -34.192  -9.922  17.400  0.00  0.00    +0.038 A 
BRANCH  20  22
ATOM     22  N   UNL     1     -34.666  -7.824  18.623  0.00  0.00    +0.056 N 
ATOM     23  O   UNL     1     -34.350  -8.416  19.824  0.00  0.00    -0.126 OA
ATOM     24  O   UNL     1     -35.062  -6.639  18.623  0.00  0.00    -0.126 OA
ENDBRANCH  20  22
ENDBRANCH  15  16
ENDBRANCH  11  15
TORSDOF 4
ENDMDL
MODEL 3
REMARK VINA RESULT:    -4.214      4.580      6.090
REMARK INTER + INTRA:          -5.528
REMARK INTER:                  -5.266
REMARK INTRA:                  -0.262
REMARK UNBOUND:                -0.329
REMARK  Name = 
REMARK  4 active torsions:
REMARK  status: ('A' for Active; 'I' for Inactive)
REMARK    1  A    between atoms: C_2  and  C_3
REMARK    2  A    between atoms: N_13  and  C_14
REMARK    3  A    between atoms: C_14  and  C_15
REMARK    4  A    between atoms: C_19  and  N_21
REMARK                            x       y       z     vdW  Elec       q    Type
REMARK                         _______ _______ _______ _____ _____    ______ ____
ROOT
ATOM      1  C   UNL     1     -29.475 -14.258  13.769  0.00  0.00    +0.052 A 
ATOM      2  C   UNL     1     -29.486 -14.877  15.026  0.00  0.00    +0.021 A 
ATOM      3  C   UNL     1     -30.376 -14.448  16.015  0.00  0.00    +0.029 A 
ATOM      4  C   UNL     1     -31.260 -13.397  15.753  0.00  0.00    +0.073 A 
ATOM      5  N   UNL     1     -32.126 -12.976  16.714  0.00  0.00    -0.232 NA
ATOM      6  C   UNL     1     -33.003 -11.955  16.507  0.00  0.00    +0.120 A 
ATOM      7  C   UNL     1     -33.028 -11.313  15.256  0.00  0.00    +0.044 A 
ATOM      8  C   UNL     1     -32.150 -11.721  14.250  0.00  0.00    +0.013 A 
ATOM      9  C   UNL     1     -31.254 -12.770  14.489  0.00  0.00    +0.002 A 
ATOM     10  C   UNL     1     -30.359 -13.204  13.500  0.00  0.00    +0.029 A 
ATOM     11  N   UNL     1     -33.882 -11.572  17.579  0.00  0.00    -0.325 N 
ATOM     12  H   UNL     1     -33.874 -12.152  18.448  0.00  0.00    +0.148 HD
ENDROOT
BRANCH   1  14
ATOM     13  N   UNL     1     -27.818 -15.062  11.939  0.00  0.00    -0.191 NA
ATOM     14  C   UNL     1     -28.556 -14.704  12.754  0.00  0.00    +0.099 C 
ENDBRANCH   1  14
BRANCH  11  15
ATOM     15  C   UNL     1     -34.747 -10.391  17.564  0.00  0.00    +0.138 C 
BRANCH  15  16
ATOM     16  C   UNL     1     -34.059  -9.218  18.213  0.00  0.00    -0.028 A 
ATOM     17  C   UNL     1     -34.672  -7.956  18.237  0.00  0.00    +0.005 A 
ATOM     18  C   UNL     1     -34.032  -6.874  18.844  0.00  0.00    +0.003 A 
ATOM     19  C   UNL     1     -32.780  -7.042  19.440  0.00  0.00    +0.033 A 
ATOM     20  C   UNL     1     -32.153  -8.300  19.439  0.00  0.00    +0.127 A 
ATOM     21  C   UNL     1     -32.805  -9.386  18.824  0.00  0.00    +0.038 A 
BRANCH  20  22
ATOM     22  N   UNL     1     -30.865  -8.471  20.058  0.00  0.00    +0.056 N 
ATOM     23  O   UNL     1     -29.816  -9.009  19.349  0.00  0.00    -0.126 OA
ATOM     24  O   UNL     1     -30.679  -8.138  21.247  0.00  0.00    -0.126 OA
ENDBRANCH  20  22
ENDBRANCH  15  16
ENDBRANCH  11  15
TORSDOF 4
ENDMDL
MODEL 4
REMARK VINA RESULT:    -3.865      3.439      5.314
REMARK INTER + INTRA:          -5.097
REMARK INTER:                  -4.682
REMARK INTRA:                  -0.415
REMARK UNBOUND:                -0.329
REMARK  Name = 
REMARK  4 active torsions:
REMARK  status: ('A' for Active; 'I' for Inactive)
REMARK    1  A    between atoms: C_2  and  C_3
REMARK    2  A    between atoms: N_13  and  C_14
REMARK    3  A    between atoms: C_14  and  C_15
REMARK    4  A    between atoms: C_19  and  N_21
REMARK                            x       y       z     vdW  Elec       q    Type
REMARK                         _______ _______ _______ _____ _____    ______ ____
ROOT
ATOM      1  C   UNL     1     -31.602  -7.456  20.191  0.00  0.00    +0.052 A 
ATOM      2  C   UNL     1     -32.832  -7.692  19.562  0.00  0.00    +0.021 A 
ATOM      3  C   UNL     1     -33.062  -8.899  18.896  0.00  0.00    +0.029 A 
ATOM      4  C   UNL     1     -32.065  -9.878  18.854  0.00  0.00    +0.073 A 
ATOM      5  N   UNL     1     -32.285 -11.052  18.205  0.00  0.00    -0.232 NA
ATOM      6  C   UNL     1     -31.343 -12.033  18.135  0.00  0.00    +0.120 A 
ATOM      7  C   UNL     1     -30.099 -11.837  18.760  0.00  0.00    +0.044 A 
ATOM      8  C   UNL     1     -29.841 -10.641  19.432  0.00  0.00    +0.013 A 
ATOM      9  C   UNL     1     -30.824  -9.646  19.486  0.00  0.00    +0.002 A 
ATOM     10  C   UNL     1     -30.598  -8.433  20.154  0.00  0.00    +0.029 A 
ATOM     11  N   UNL     1     -31.658 -13.244  17.425  0.00  0.00    -0.325 N 
ATOM     12  H   UNL     1     -32.633 -13.360  17.066  0.00  0.00    +0.148 HD
ENDROOT
BRANCH   1  14
ATOM     13  N   UNL     1     -31.185  -5.211  21.426  0.00  0.00    -0.191 NA
ATOM     14  C   UNL     1     -31.371  -6.211  20.876  0.00  0.00    +0.099 C 
ENDBRANCH   1  14
BRANCH  11  15
ATOM     15  C   UNL     1     -30.695 -14.303  17.118  0.00  0.00    +0.138 C 
BRANCH  15  16
ATOM     16  C   UNL     1     -30.357 -14.307  15.650  0.00  0.00    -0.028 A 
ATOM     17  C   UNL     1     -29.141 -14.844  15.201  0.00  0.00    +0.005 A 
ATOM     18  C   UNL     1     -28.836 -14.849  13.839  0.00  0.00    +0.003 A 
ATOM     19  C   UNL     1     -29.742 -14.329  12.913  0.00  0.00    +0.033 A 
ATOM     20  C   UNL     1     -30.971 -13.798  13.339  0.00  0.00    +0.127 A 
ATOM     21  C   UNL     1     -31.272 -13.795  14.715  0.00  0.00    +0.038 A 
BRANCH  20  22
ATOM     22  N   UNL     1     -31.905 -13.266  12.382  0.00  0.00    +0.056 N 
ATOM     23  O   UNL     1     -32.961 -14.028  11.938  0.00  0.00    -0.126 OA
ATOM     24  O   UNL     1     -31.773 -12.106  11.938  0.00  0.00    -0.126 OA
ENDBRANCH  20  22
ENDBRANCH  15  16
ENDBRANCH  11  15
TORSDOF 4
ENDMDL
MODEL 5
REMARK VINA RESULT:    -3.589      4.362      6.620
REMARK INTER + INTRA:          -4.757
REMARK INTER:                  -4.277
REMARK INTRA:                  -0.480
REMARK UNBOUND:                -0.329
REMARK  Name = 
REMARK  4 active torsions:
REMARK  status: ('A' for Active; 'I' for Inactive)
REMARK    1  A    between atoms: C_2  and  C_3
REMARK    2  A    between atoms: N_13  and  C_14
REMARK    3  A    between atoms: C_14  and  C_15
REMARK    4  A    between atoms: C_19  and  N_21
REMARK                            x       y       z     vdW  Elec       q    Type
REMARK                         _______ _______ _______ _____ _____    ______ ____
ROOT
ATOM      1  C   UNL     1     -30.181 -14.262  14.389  0.00  0.00    +0.052 A 
ATOM      2  C   UNL     1     -29.166 -14.488  15.329  0.00  0.00    +0.021 A 
ATOM      3  C   UNL     1     -29.322 -14.060  16.650  0.00  0.00    +0.029 A 
ATOM      4  C   UNL     1     -30.493 -13.402  17.040  0.00  0.00    +0.073 A 
ATOM      5  N   UNL     1     -30.647 -12.983  18.325  0.00  0.00    -0.232 NA
ATOM      6  C   UNL     1     -31.767 -12.336  18.750  0.00  0.00    +0.120 A 
ATOM      7  C   UNL     1     -32.811 -12.097  17.838  0.00  0.00    +0.044 A 
ATOM      8  C   UNL     1     -32.682 -12.514  16.512  0.00  0.00    +0.013 A 
ATOM      9  C   UNL     1     -31.519 -13.172  16.098  0.00  0.00    +0.002 A 
ATOM     10  C   UNL     1     -31.357 -13.604  14.773  0.00  0.00    +0.029 A 
ATOM     11  N   UNL     1     -31.847 -11.923  20.126  0.00  0.00    -0.325 N 
ATOM     12  H   UNL     1     -31.076 -12.216  20.768  0.00  0.00    +0.148 HD
ENDROOT
BRANCH   1  14
ATOM     13  N   UNL     1     -29.881 -15.062  11.938  0.00  0.00    -0.191 NA
ATOM     14  C   UNL     1     -30.015 -14.706  13.029  0.00  0.00    +0.099 C 
ENDBRANCH   1  14
BRANCH  11  15
ATOM     15  C   UNL     1     -32.901 -11.073  20.680  0.00  0.00    +0.138 C 
BRANCH  15  16
ATOM     16  C   UNL     1     -32.493  -9.623  20.638  0.00  0.00    -0.028 A 
ATOM     17  C   UNL     1     -31.312  -9.197  21.264  0.00  0.00    +0.005 A 
ATOM     18  C   UNL     1     -30.936  -7.854  21.218  0.00  0.00    +0.003 A 
ATOM     19  C   UNL     1     -31.728  -6.925  20.539  0.00  0.00    +0.033 A 
ATOM     20  C   UNL     1     -32.908  -7.332  19.894  0.00  0.00    +0.127 A 
ATOM     21  C   UNL     1     -33.281  -8.689  19.946  0.00  0.00    +0.038 A 
BRANCH  20  22
ATOM     22  N   UNL     1     -33.721  -6.374  19.192  0.00  0.00    +0.056 N 
ATOM     23  O   UNL     1     -34.676  -6.791  18.294  0.00  0.00    -0.126 OA
ATOM     24  O   UNL     1     -33.572  -5.148  19.383  0.00  0.00    -0.126 OA
ENDBRANCH  20  22
ENDBRANCH  15  16
ENDBRANCH  11  15
TORSDOF 4
ENDMDL
MODEL 6
REMARK VINA RESULT:    -3.516      4.274      6.153
REMARK INTER + INTRA:          -4.667
REMARK INTER:                  -4.376
REMARK INTRA:                  -0.291
REMARK UNBOUND:                -0.329
REMARK  Name = 
REMARK  4 active torsions:
REMARK  status: ('A' for Active; 'I' for Inactive)
REMARK    1  A    between atoms: C_2  and  C_3
REMARK    2  A    between atoms: N_13  and  C_14
REMARK    3  A    between atoms: C_14  and  C_15
REMARK    4  A    between atoms: C_19  and  N_21
REMARK                            x       y       z     vdW  Elec       q    Type
REMARK                         _______ _______ _______ _____ _____    ______ ____
ROOT
ATOM      1  C   UNL     1     -33.486  -7.139  20.222  0.00  0.00    +0.052 A 
ATOM      2  C   UNL     1     -32.194  -7.655  20.389  0.00  0.00    +0.021 A 
ATOM      3  C   UNL     1     -31.647  -8.510  19.427  0.00  0.00    +0.029 A 
ATOM      4  C   UNL     1     -32.388  -8.854  18.292  0.00  0.00    +0.073 A 
ATOM      5  N   UNL     1     -31.859  -9.686  17.356  0.00  0.00    -0.232 NA
ATOM      6  C   UNL     1     -32.544 -10.051  16.237  0.00  0.00    +0.120 A 
ATOM      7  C   UNL     1     -33.841  -9.548  16.029  0.00  0.00    +0.044 A 
ATOM      8  C   UNL     1     -34.412  -8.693  16.974  0.00  0.00    +0.013 A 
ATOM      9  C   UNL     1     -33.690  -8.336  18.119  0.00  0.00    +0.002 A 
ATOM     10  C   UNL     1     -34.235  -7.479  19.087  0.00  0.00    +0.029 A 
ATOM     11  N   UNL     1     -31.911 -10.939  15.299  0.00  0.00    -0.325 N 
ATOM     12  H   UNL     1     -30.913 -11.199  15.470  0.00  0.00    +0.148 HD
ENDROOT
BRANCH   1  14
ATOM     13  N   UNL     1     -34.493  -5.553  22.013  0.00  0.00    -0.191 NA
ATOM     14  C   UNL     1     -34.044  -6.259  21.215  0.00  0.00    +0.099 C 
ENDBRANCH   1  14
BRANCH  11  15
ATOM     15  C   UNL     1     -32.581 -11.552  14.151  0.00  0.00    +0.138 C 
BRANCH  15  16
ATOM     16  C   UNL     1     -31.773 -12.705  13.616  0.00  0.00    -0.028 A 
ATOM     17  C   UNL     1     -32.155 -13.354  12.431  0.00  0.00    +0.005 A 
ATOM     18  C   UNL     1     -31.399 -14.419  11.938  0.00  0.00    +0.003 A 
ATOM     19  C   UNL     1     -30.252 -14.840  12.613  0.00  0.00    +0.033 A 
ATOM     20  C   UNL     1     -29.844 -14.197  13.794  0.00  0.00    +0.127 A 
ATOM     21  C   UNL     1     -30.611 -13.124  14.287  0.00  0.00    +0.038 A 
BRANCH  20  22
ATOM     22  N   UNL     1     -28.659 -14.630  14.487  0.00  0.00    +0.056 N 
ATOM     23  O   UNL     1     -27.557 -15.062  13.785  0.00  0.00    -0.126 OA
ATOM     24  O   UNL     1     -28.611 -14.624  15.735  0.00  0.00    -0.126 OA
ENDBRANCH  20  22
ENDBRANCH  15  16
ENDBRANCH  11  15
TORSDOF 4
ENDMDL
MODEL 7
REMARK VINA RESULT:    -1.975      3.975      5.176
REMARK INTER + INTRA:          -2.766
REMARK INTER:                  -2.768
REMARK INTRA:                   0.002
REMARK UNBOUND:                -0.329
REMARK  Name = 
REMARK  4 active torsions:
REMARK  status: ('A' for Active; 'I' for Inactive)
REMARK    1  A    between atoms: C_2  and  C_3
REMARK    2  A    between atoms: N_13  and  C_14
REMARK    3  A    between atoms: C_14  and  C_15
REMARK    4  A    between atoms: C_19  and  N_21
REMARK                            x       y       z     vdW  Elec       q    Type
REMARK                         _______ _______ _______ _____ _____    ______ ____
ROOT
ATOM      1  C   UNL     1     -27.365 -13.173  20.338  0.00  0.00    +0.052 A 
ATOM      2  C   UNL     1     -28.414 -13.633  21.145  0.00  0.00    +0.021 A 
ATOM      3  C   UNL     1     -29.723 -13.201  20.911  0.00  0.00    +0.029 A 
ATOM      4  C   UNL     1     -29.991 -12.308  19.869  0.00  0.00    +0.073 A 
ATOM      5  N   UNL     1     -31.263 -11.885  19.641  0.00  0.00    -0.232 NA
ATOM      6  C   UNL     1     -31.573 -11.014  18.641  0.00  0.00    +0.120 A 
ATOM      7  C   UNL     1     -30.548 -10.537  17.804  0.00  0.00    +0.044 A 
ATOM      8  C   UNL     1     -29.231 -10.951  18.015  0.00  0.00    +0.013 A 
ATOM      9  C   UNL     1     -28.938 -11.843  19.053  0.00  0.00    +0.002 A 
ATOM     10  C   UNL     1     -27.626 -12.279  19.292  0.00  0.00    +0.029 A 
ATOM     11  N   UNL     1     -32.944 -10.616  18.471  0.00  0.00    -0.325 N 
ATOM     12  H   UNL     1     -33.665 -11.082  19.067  0.00  0.00    +0.148 HD
ENDROOT
BRANCH   1  14
ATOM     13  N   UNL     1     -24.937 -13.981  20.781  0.00  0.00    -0.191 NA
ATOM     14  C   UNL     1     -26.018 -13.621  20.583  0.00  0.00    +0.099 C 
ENDBRANCH   1  14
BRANCH  11  15
ATOM     15  C   UNL     1     -33.398  -9.563  17.561  0.00  0.00    +0.138 C 
BRANCH  15  16
ATOM     16  C   UNL     1     -33.475  -8.239  18.276  0.00  0.00    -0.028 A 
ATOM     17  C   UNL     1     -34.629  -7.446  18.184  0.00  0.00    +0.005 A 
ATOM     18  C   UNL     1     -34.696  -6.222  18.852  0.00  0.00    +0.003 A 
ATOM     19  C   UNL     1     -33.620  -5.783  19.625  0.00  0.00    +0.033 A 
ATOM     20  C   UNL     1     -32.460  -6.567  19.742  0.00  0.00    +0.127 A 
ATOM     21  C   UNL     1     -32.399  -7.800  19.064  0.00  0.00    +0.038 A 
BRANCH  20  22
ATOM     22  N   UNL     1     -31.353  -6.114  20.543  0.00  0.00    +0.056 N 
ATOM     23  O   UNL     1     -30.145  -6.772  20.502  0.00  0.00    -0.126 OA
ATOM     24  O   UNL     1     -31.470  -5.119  21.289  0.00  0.00    -0.126 OA
ENDBRANCH  20  22
ENDBRANCH  15  16
ENDBRANCH  11  15
TORSDOF 4
ENDMDL
