MODEL 1
REMARK VINA RESULT:    -4.805      0.000      0.000
REMARK INTER + INTRA:          -8.101
REMARK INTER:                  -6.350
REMARK INTRA:                  -1.751
REMARK UNBOUND:                -1.751
REMARK  Name = 
REMARK  6 active torsions:
REMARK  status: ('A' for Active; 'I' for Inactive)
REMARK    1  A    between atoms: C_2  and  C_20
REMARK    2  A    between atoms: N_3  and  C_4
REMARK    3  A    between atoms: C_4  and  C_5
REMARK    4  A    between atoms: C_10  and  S_11
REMARK    5  A    between atoms: S_11  and  N_14
REMARK    6  A    between atoms: C_22  and  O_23
REMARK                            x       y       z     vdW  Elec       q    Type
REMARK                         _______ _______ _______ _____ _____    ______ ____
ROOT
ATOM      1  O   UNL     1     -32.144 -14.982  17.276  0.00  0.00    -0.270 OA
ATOM      2  C   UNL     1     -31.581 -13.952  16.812  0.00  0.00    +0.245 C 
ATOM      3  N   UNL     1     -31.366 -12.806  17.652  0.00  0.00    -0.307 N 
ATOM      4  H   UNL     1     -30.839 -11.988  17.271  0.00  0.00    +0.149 HD
ENDROOT
BRANCH   2   5
ATOM      5  C   UNL     1     -31.085 -13.969  15.418  0.00  0.00    +0.051 A 
ATOM      6  C   UNL     1     -29.820 -14.527  15.177  0.00  0.00    +0.080 A 
ATOM      7  C   UNL     1     -29.283 -14.520  13.887  0.00  0.00    +0.214 A 
ATOM      8  N   UNL     1     -29.991 -13.986  12.861  0.00  0.00    -0.213 NA
ATOM      9  C   UNL     1     -31.229 -13.457  13.039  0.00  0.00    +0.076 A 
ATOM     10  C   UNL     1     -31.920 -12.937  11.938  0.00  0.00    +0.028 A 
ATOM     11  C   UNL     1     -33.206 -12.419  12.096  0.00  0.00    +0.002 A 
ATOM     12  C   UNL     1     -33.814 -12.426  13.353  0.00  0.00    +0.001 A 
ATOM     13  C   UNL     1     -33.135 -12.941  14.461  0.00  0.00    +0.011 A 
ATOM     14  C   UNL     1     -31.823 -13.442  14.327  0.00  0.00    +0.013 A 
BRANCH   7  15
ATOM     15  O   UNL     1     -28.021 -15.054  13.641  0.00  0.00    -0.492 OA
ATOM     16  H   UNL     1     -27.718 -15.288  12.702  0.00  0.00    +0.294 HD
ENDBRANCH   7  15
ENDBRANCH   2   5
BRANCH   3  17
ATOM     17  C   UNL     1     -31.862 -12.715  19.027  0.00  0.00    +0.141 C 
BRANCH  17  18
ATOM     18  C   UNL     1     -30.715 -12.476  19.991  0.00  0.00    -0.004 A 
ATOM     19  C   UNL     1     -29.978 -13.598  20.416  0.00  0.00    +0.007 A 
ATOM     20  C   UNL     1     -28.956 -13.471  21.353  0.00  0.00    +0.000 A 
ATOM     21  C   UNL     1     -28.646 -12.221  21.876  0.00  0.00    +0.002 A 
ATOM     22  C   UNL     1     -29.329 -11.088  21.435  0.00  0.00    +0.029 A 
ATOM     23  C   UNL     1     -30.340 -11.181  20.458  0.00  0.00    +0.110 A 
BRANCH  23  24
ATOM     24  S   UNL     1     -31.119  -9.697  19.837  0.00  0.00    +0.061 S 
ATOM     25  O   UNL     1     -30.095  -8.596  19.824  0.00  0.00    -0.153 OA
ATOM     26  O   UNL     1     -32.229  -9.314  20.778  0.00  0.00    -0.153 OA
BRANCH  24  27
ATOM     27  N   UNL     1     -31.833  -9.816  18.244  0.00  0.00    -0.177 NA
ATOM     28  C   UNL     1     -30.880  -9.452  17.181  0.00  0.00    +0.109 C 
ATOM     29  C   UNL     1     -31.442  -9.837  15.802  0.00  0.00    +0.017 C 
ATOM     30  C   UNL     1     -32.965  -9.620  15.690  0.00  0.00    +0.003 C 
ATOM     31  C   UNL     1     -33.484  -8.643  16.749  0.00  0.00    +0.017 C 
ATOM     32  C   UNL     1     -33.156  -9.156  18.163  0.00  0.00    +0.109 C 
ENDBRANCH  24  27
ENDBRANCH  23  24
ENDBRANCH  17  18
ENDBRANCH   3  17
TORSDOF 6
ENDMDL
MODEL 2
REMARK VINA RESULT:    -4.599      2.500      3.664
REMARK INTER + INTRA:          -7.828
REMARK INTER:                  -6.564
REMARK INTRA:                  -1.265
REMARK UNBOUND:                -1.751
REMARK  Name = 
REMARK  6 active torsions:
REMARK  status: ('A' for Active; 'I' for Inactive)
REMARK    1  A    between atoms: C_2  and  C_20
REMARK    2  A    between atoms: N_3  and  C_4
REMARK    3  A    between atoms: C_4  and  C_5
REMARK    4  A    between atoms: C_10  and  S_11
REMARK    5  A    between atoms: S_11  and  N_14
REMARK    6  A    between atoms: C_22  and  O_23
REMARK                            x       y       z     vdW  Elec       q    Type
REMARK                         _______ _______ _______ _____ _____    ______ ____
ROOT
ATOM      1  O   UNL     1     -32.497 -12.222  17.010  0.00  0.00    -0.270 OA
ATOM      2  C   UNL     1     -31.989 -11.645  16.009  0.00  0.00    +0.245 C 
ATOM      3  N   UNL     1     -31.184 -10.467  16.186  0.00  0.00    -0.307 N 
ATOM      4  H   UNL     1     -30.715 -10.042  15.353  0.00  0.00    +0.149 HD
ENDROOT
BRANCH   2   5
ATOM      5  C   UNL     1     -32.174 -12.238  14.665  0.00  0.00    +0.051 A 
ATOM      6  C   UNL     1     -33.300 -11.849  13.925  0.00  0.00    +0.080 A 
ATOM      7  C   UNL     1     -33.550 -12.418  12.674  0.00  0.00    +0.214 A 
ATOM      8  N   UNL     1     -32.694 -13.340  12.166  0.00  0.00    -0.213 NA
ATOM      9  C   UNL     1     -31.578 -13.732  12.833  0.00  0.00    +0.076 A 
ATOM     10  C   UNL     1     -30.722 -14.673  12.250  0.00  0.00    +0.028 A 
ATOM     11  C   UNL     1     -29.554 -15.062  12.907  0.00  0.00    +0.002 A 
ATOM     12  C   UNL     1     -29.228 -14.506  14.145  0.00  0.00    +0.001 A 
ATOM     13  C   UNL     1     -30.075 -13.566  14.740  0.00  0.00    +0.011 A 
ATOM     14  C   UNL     1     -31.275 -13.181  14.105  0.00  0.00    +0.013 A 
BRANCH   7  15
ATOM     15  O   UNL     1     -34.675 -12.053  11.938  0.00  0.00    -0.492 OA
ATOM     16  H   UNL     1     -34.755 -12.269  10.951  0.00  0.00    +0.294 HD
ENDBRANCH   7  15
ENDBRANCH   2   5
BRANCH   3  17
ATOM     17  C   UNL     1     -30.991  -9.815  17.482  0.00  0.00    +0.141 C 
BRANCH  17  18
ATOM     18  C   UNL     1     -29.962 -10.565  18.307  0.00  0.00    -0.004 A 
ATOM     19  C   UNL     1     -28.685 -10.751  17.741  0.00  0.00    +0.007 A 
ATOM     20  C   UNL     1     -27.708 -11.488  18.405  0.00  0.00    +0.000 A 
ATOM     21  C   UNL     1     -27.984 -12.045  19.648  0.00  0.00    +0.002 A 
ATOM     22  C   UNL     1     -29.224 -11.835  20.250  0.00  0.00    +0.029 A 
ATOM     23  C   UNL     1     -30.217 -11.059  19.621  0.00  0.00    +0.110 A 
BRANCH  23  24
ATOM     24  S   UNL     1     -31.753 -10.719  20.468  0.00  0.00    +0.061 S 
ATOM     25  O   UNL     1     -31.610 -11.156  21.900  0.00  0.00    -0.153 OA
ATOM     26  O   UNL     1     -32.843 -11.530  19.822  0.00  0.00    -0.153 OA
BRANCH  24  27
ATOM     27  N   UNL     1     -32.289  -9.053  20.444  0.00  0.00    -0.177 NA
ATOM     28  C   UNL     1     -31.315  -8.147  21.078  0.00  0.00    +0.109 C 
ATOM     29  C   UNL     1     -31.678  -6.681  20.790  0.00  0.00    +0.017 C 
ATOM     30  C   UNL     1     -33.199  -6.427  20.786  0.00  0.00    +0.003 C 
ATOM     31  C   UNL     1     -33.966  -7.522  21.533  0.00  0.00    +0.017 C 
ATOM     32  C   UNL     1     -33.689  -8.900  20.902  0.00  0.00    +0.109 C 
ENDBRANCH  24  27
ENDBRANCH  23  24
ENDBRANCH  17  18
ENDBRANCH   3  17
TORSDOF 6
ENDMDL
MODEL 3
REMARK VINA RESULT:    -4.595      1.995      4.138
REMARK INTER + INTRA:          -7.823
REMARK INTER:                  -6.686
REMARK INTRA:                  -1.137
REMARK UNBOUND:                -1.751
REMARK  Name = 
REMARK  6 active torsions:
REMARK  status: ('A' for Active; 'I' for Inactive)
REMARK    1  A    between atoms: C_2  and  C_20
REMARK    2  A    between atoms: N_3  and  C_4
REMARK    3  A    between atoms: C_4  and  C_5
REMARK    4  A    between atoms: C_10  and  S_11
REMARK    5  A    between atoms: S_11  and  N_14
REMARK    6  A    between atoms: C_22  and  O_23
REMARK                            x       y       z     vdW  Elec       q    Type
REMARK                         _______ _______ _______ _____ _____    ______ ____
ROOT
ATOM      1  O   UNL     1     -34.701 -12.019  16.148  0.00  0.00    -0.270 OA
ATOM      2  C   UNL     1     -33.562 -11.890  16.677  0.00  0.00    +0.245 C 
ATOM      3  N   UNL     1     -33.352 -10.913  17.710  0.00  0.00    -0.307 N 
ATOM      4  H   UNL     1     -32.422 -10.866  18.184  0.00  0.00    +0.149 HD
ENDROOT
BRANCH   2   5
ATOM      5  C   UNL     1     -32.472 -12.806  16.272  0.00  0.00    +0.051 A 
ATOM      6  C   UNL     1     -31.808 -13.523  17.278  0.00  0.00    +0.080 A 
ATOM      7  C   UNL     1     -30.737 -14.360  16.954  0.00  0.00    +0.214 A 
ATOM      8  N   UNL     1     -30.347 -14.492  15.662  0.00  0.00    -0.213 NA
ATOM      9  C   UNL     1     -30.974 -13.838  14.650  0.00  0.00    +0.076 A 
ATOM     10  C   UNL     1     -30.538 -14.029  13.333  0.00  0.00    +0.028 A 
ATOM     11  C   UNL     1     -31.191 -13.391  12.278  0.00  0.00    +0.002 A 
ATOM     12  C   UNL     1     -32.289 -12.567  12.530  0.00  0.00    +0.001 A 
ATOM     13  C   UNL     1     -32.734 -12.367  13.840  0.00  0.00    +0.011 A 
ATOM     14  C   UNL     1     -32.069 -12.980  14.923  0.00  0.00    +0.013 A 
BRANCH   7  15
ATOM     15  O   UNL     1     -30.058 -15.062  17.947  0.00  0.00    -0.492 OA
ATOM     16  H   UNL     1     -29.323 -14.629  18.495  0.00  0.00    +0.294 HD
ENDBRANCH   7  15
ENDBRANCH   2   5
BRANCH   3  17
ATOM     17  C   UNL     1     -34.378  -9.958  18.131  0.00  0.00    +0.141 C 
BRANCH  17  18
ATOM     18  C   UNL     1     -33.740  -8.735  18.762  0.00  0.00    -0.004 A 
ATOM     19  C   UNL     1     -34.247  -7.473  18.394  0.00  0.00    +0.007 A 
ATOM     20  C   UNL     1     -33.671  -6.301  18.875  0.00  0.00    +0.000 A 
ATOM     21  C   UNL     1     -32.583  -6.366  19.739  0.00  0.00    +0.002 A 
ATOM     22  C   UNL     1     -32.093  -7.604  20.156  0.00  0.00    +0.029 A 
ATOM     23  C   UNL     1     -32.683  -8.805  19.718  0.00  0.00    +0.110 A 
BRANCH  23  24
ATOM     24  S   UNL     1     -32.100 -10.369  20.357  0.00  0.00    +0.061 S 
ATOM     25  O   UNL     1     -33.241 -11.349  20.323  0.00  0.00    -0.153 OA
ATOM     26  O   UNL     1     -31.677 -10.171  21.787  0.00  0.00    -0.153 OA
BRANCH  24  27
ATOM     27  N   UNL     1     -30.733 -11.075  19.524  0.00  0.00    -0.177 NA
ATOM     28  C   UNL     1     -29.671 -11.495  20.457  0.00  0.00    +0.109 C 
ATOM     29  C   UNL     1     -28.627 -12.356  19.728  0.00  0.00    +0.017 C 
ATOM     30  C   UNL     1     -28.354 -11.882  18.286  0.00  0.00    +0.003 C 
ATOM     31  C   UNL     1     -28.782 -10.427  18.070  0.00  0.00    +0.017 C 
ATOM     32  C   UNL     1     -30.281 -10.255  18.376  0.00  0.00    +0.109 C 
ENDBRANCH  24  27
ENDBRANCH  23  24
ENDBRANCH  17  18
ENDBRANCH   3  17
TORSDOF 6
ENDMDL
MODEL 4
REMARK VINA RESULT:    -4.586      2.850      4.909
REMARK INTER + INTRA:          -7.811
REMARK INTER:                  -5.434
REMARK INTRA:                  -2.377
REMARK UNBOUND:                -1.751
REMARK  Name = 
REMARK  6 active torsions:
REMARK  status: ('A' for Active; 'I' for Inactive)
REMARK    1  A    between atoms: C_2  and  C_20
REMARK    2  A    between atoms: N_3  and  C_4
REMARK    3  A    between atoms: C_4  and  C_5
REMARK    4  A    between atoms: C_10  and  S_11
REMARK    5  A    between atoms: S_11  and  N_14
REMARK    6  A    between atoms: C_22  and  O_23
REMARK                            x       y       z     vdW  Elec       q    Type
REMARK                         _______ _______ _______ _____ _____    ______ ____
ROOT
ATOM      1  O   UNL     1     -31.308 -12.053  21.432  0.00  0.00    -0.270 OA
ATOM      2  C   UNL     1     -30.678 -11.351  20.594  0.00  0.00    +0.245 C 
ATOM      3  N   UNL     1     -30.812  -9.920  20.605  0.00  0.00    -0.307 N 
ATOM      4  H   UNL     1     -30.232  -9.349  19.948  0.00  0.00    +0.149 HD
ENDROOT
BRANCH   2   5
ATOM      5  C   UNL     1     -29.750 -12.014  19.651  0.00  0.00    +0.051 A 
ATOM      6  C   UNL     1     -28.373 -11.815  19.836  0.00  0.00    +0.080 A 
ATOM      7  C   UNL     1     -27.456 -12.376  18.943  0.00  0.00    +0.214 A 
ATOM      8  N   UNL     1     -27.896 -13.127  17.902  0.00  0.00    -0.213 NA
ATOM      9  C   UNL     1     -29.216 -13.368  17.696  0.00  0.00    +0.076 A 
ATOM     10  C   UNL     1     -29.609 -14.167  16.615  0.00  0.00    +0.028 A 
ATOM     11  C   UNL     1     -30.959 -14.452  16.407  0.00  0.00    +0.002 A 
ATOM     12  C   UNL     1     -31.924 -13.951  17.282  0.00  0.00    +0.001 A 
ATOM     13  C   UNL     1     -31.546 -13.151  18.364  0.00  0.00    +0.011 A 
ATOM     14  C   UNL     1     -30.189 -12.827  18.575  0.00  0.00    +0.013 A 
BRANCH   7  15
ATOM     15  O   UNL     1     -26.088 -12.169  19.105  0.00  0.00    -0.492 OA
ATOM     16  H   UNL     1     -25.702 -11.843  19.984  0.00  0.00    +0.294 HD
ENDBRANCH   7  15
ENDBRANCH   2   5
BRANCH   3  17
ATOM     17  C   UNL     1     -31.738  -9.208  21.488  0.00  0.00    +0.141 C 
BRANCH  17  18
ATOM     18  C   UNL     1     -32.153  -7.886  20.870  0.00  0.00    -0.004 A 
ATOM     19  C   UNL     1     -31.572  -6.713  21.391  0.00  0.00    +0.007 A 
ATOM     20  C   UNL     1     -31.952  -5.457  20.925  0.00  0.00    +0.000 A 
ATOM     21  C   UNL     1     -32.911  -5.350  19.925  0.00  0.00    +0.002 A 
ATOM     22  C   UNL     1     -33.466  -6.497  19.360  0.00  0.00    +0.029 A 
ATOM     23  C   UNL     1     -33.070  -7.781  19.782  0.00  0.00    +0.110 A 
BRANCH  23  24
ATOM     24  S   UNL     1     -33.721  -9.230  18.961  0.00  0.00    +0.061 S 
ATOM     25  O   UNL     1     -35.062  -8.880  18.378  0.00  0.00    -0.153 OA
ATOM     26  O   UNL     1     -33.909 -10.314  19.987  0.00  0.00    -0.153 OA
BRANCH  24  27
ATOM     27  N   UNL     1     -32.720  -9.907  17.696  0.00  0.00    -0.177 NA
ATOM     28  C   UNL     1     -31.568  -9.044  17.378  0.00  0.00    +0.109 C 
ATOM     29  C   UNL     1     -30.570  -9.793  16.479  0.00  0.00    +0.017 C 
ATOM     30  C   UNL     1     -31.258 -10.708  15.446  0.00  0.00    +0.003 C 
ATOM     31  C   UNL     1     -32.718 -10.311  15.211  0.00  0.00    +0.017 C 
ATOM     32  C   UNL     1     -33.511 -10.364  16.530  0.00  0.00    +0.109 C 
ENDBRANCH  24  27
ENDBRANCH  23  24
ENDBRANCH  17  18
ENDBRANCH   3  17
TORSDOF 6
ENDMDL
MODEL 5
REMARK VINA RESULT:    -4.495      1.302      2.407
REMARK INTER + INTRA:          -7.691
REMARK INTER:                  -6.177
REMARK INTRA:                  -1.514
REMARK UNBOUND:                -1.751
REMARK  Name = 
REMARK  6 active torsions:
REMARK  status: ('A' for Active; 'I' for Inactive)
REMARK    1  A    between atoms: C_2  and  C_20
REMARK    2  A    between atoms: N_3  and  C_4
REMARK    3  A    between atoms: C_4  and  C_5
REMARK    4  A    between atoms: C_10  and  S_11
REMARK    5  A    between atoms: S_11  and  N_14
REMARK    6  A    between atoms: C_22  and  O_23
REMARK                            x       y       z     vdW  Elec       q    Type
REMARK                         _______ _______ _______ _____ _____    ______ ____
ROOT
ATOM      1  O   UNL     1     -32.092 -14.872  17.183  0.00  0.00    -0.270 OA
ATOM      2  C   UNL     1     -31.936 -13.705  16.730  0.00  0.00    +0.245 C 
ATOM      3  N   UNL     1     -31.949 -12.577  17.619  0.00  0.00    -0.307 N 
ATOM      4  H   UNL     1     -31.750 -11.624  17.236  0.00  0.00    +0.149 HD
ENDROOT
BRANCH   2   5
ATOM      5  C   UNL     1     -31.669 -13.524  15.285  0.00  0.00    +0.051 A 
ATOM      6  C   UNL     1     -32.642 -12.870  14.514  0.00  0.00    +0.080 A 
ATOM      7  C   UNL     1     -32.463 -12.720  13.136  0.00  0.00    +0.214 A 
ATOM      8  N   UNL     1     -31.339 -13.196  12.543  0.00  0.00    -0.213 NA
ATOM      9  C   UNL     1     -30.358 -13.815  13.250  0.00  0.00    +0.076 A 
ATOM     10  C   UNL     1     -29.212 -14.268  12.586  0.00  0.00    +0.028 A 
ATOM     11  C   UNL     1     -28.180 -14.876  13.302  0.00  0.00    +0.002 A 
ATOM     12  C   UNL     1     -28.281 -15.026  14.686  0.00  0.00    +0.001 A 
ATOM     13  C   UNL     1     -29.421 -14.579  15.361  0.00  0.00    +0.011 A 
ATOM     14  C   UNL     1     -30.488 -13.988  14.652  0.00  0.00    +0.013 A 
BRANCH   7  15
ATOM     15  O   UNL     1     -33.430 -12.090  12.358  0.00  0.00    -0.492 OA
ATOM     16  H   UNL     1     -33.432 -11.085  12.226  0.00  0.00    +0.294 HD
ENDBRANCH   7  15
ENDBRANCH   2   5
BRANCH   3  17
ATOM     17  C   UNL     1     -32.240 -12.687  19.050  0.00  0.00    +0.141 C 
BRANCH  17  18
ATOM     18  C   UNL     1     -30.990 -12.425  19.869  0.00  0.00    -0.004 A 
ATOM     19  C   UNL     1     -30.159 -13.526  20.157  0.00  0.00    +0.007 A 
ATOM     20  C   UNL     1     -29.032 -13.382  20.961  0.00  0.00    +0.000 A 
ATOM     21  C   UNL     1     -28.708 -12.135  21.484  0.00  0.00    +0.002 A 
ATOM     22  C   UNL     1     -29.487 -11.021  21.174  0.00  0.00    +0.029 A 
ATOM     23  C   UNL     1     -30.610 -11.130  20.330  0.00  0.00    +0.110 A 
BRANCH  23  24
ATOM     24  S   UNL     1     -31.521  -9.664  19.866  0.00  0.00    +0.061 S 
ATOM     25  O   UNL     1     -30.576  -8.495  19.883  0.00  0.00    -0.153 OA
ATOM     26  O   UNL     1     -32.598  -9.430  20.890  0.00  0.00    -0.153 OA
BRANCH  24  27
ATOM     27  N   UNL     1     -32.316  -9.718  18.308  0.00  0.00    -0.177 NA
ATOM     28  C   UNL     1     -31.423  -9.296  17.214  0.00  0.00    +0.109 C 
ATOM     29  C   UNL     1     -32.053  -9.624  15.850  0.00  0.00    +0.017 C 
ATOM     30  C   UNL     1     -33.581  -9.418  15.827  0.00  0.00    +0.003 C 
ATOM     31  C   UNL     1     -34.052  -8.496  16.955  0.00  0.00    +0.017 C 
ATOM     32  C   UNL     1     -33.647  -9.069  18.326  0.00  0.00    +0.109 C 
ENDBRANCH  24  27
ENDBRANCH  23  24
ENDBRANCH  17  18
ENDBRANCH   3  17
TORSDOF 6
ENDMDL
MODEL 6
REMARK VINA RESULT:    -4.438      2.789      5.698
REMARK INTER + INTRA:          -7.617
REMARK INTER:                  -5.966
REMARK INTRA:                  -1.651
REMARK UNBOUND:                -1.751
REMARK  Name = 
REMARK  6 active torsions:
REMARK  status: ('A' for Active; 'I' for Inactive)
REMARK    1  A    between atoms: C_2  and  C_20
REMARK    2  A    between atoms: N_3  and  C_4
REMARK    3  A    between atoms: C_4  and  C_5
REMARK    4  A    between atoms: C_10  and  S_11
REMARK    5  A    between atoms: S_11  and  N_14
REMARK    6  A    between atoms: C_22  and  O_23
REMARK                            x       y       z     vdW  Elec       q    Type
REMARK                         _______ _______ _______ _____ _____    ______ ____
ROOT
ATOM      1  O   UNL     1     -30.576 -13.448  18.059  0.00  0.00    -0.270 OA
ATOM      2  C   UNL     1     -30.123 -12.607  18.884  0.00  0.00    +0.245 C 
ATOM      3  N   UNL     1     -31.016 -11.912  19.771  0.00  0.00    -0.307 N 
ATOM      4  H   UNL     1     -30.617 -11.270  20.493  0.00  0.00    +0.149 HD
ENDROOT
BRANCH   2   5
ATOM      5  C   UNL     1     -28.660 -12.401  18.972  0.00  0.00    +0.051 A 
ATOM      6  C   UNL     1     -28.075 -11.468  18.103  0.00  0.00    +0.080 A 
ATOM      7  C   UNL     1     -26.691 -11.274  18.109  0.00  0.00    +0.214 A 
ATOM      8  N   UNL     1     -25.911 -11.980  18.966  0.00  0.00    -0.213 NA
ATOM      9  C   UNL     1     -26.434 -12.876  19.843  0.00  0.00    +0.076 A 
ATOM     10  C   UNL     1     -25.581 -13.560  20.718  0.00  0.00    +0.028 A 
ATOM     11  C   UNL     1     -26.104 -14.460  21.647  0.00  0.00    +0.002 A 
ATOM     12  C   UNL     1     -27.481 -14.674  21.716  0.00  0.00    +0.001 A 
ATOM     13  C   UNL     1     -28.344 -13.999  20.848  0.00  0.00    +0.011 A 
ATOM     14  C   UNL     1     -27.832 -13.107  19.882  0.00  0.00    +0.013 A 
BRANCH   7  15
ATOM     15  O   UNL     1     -26.097 -10.365  17.237  0.00  0.00    -0.492 OA
ATOM     16  H   UNL     1     -25.637 -10.668  16.386  0.00  0.00    +0.294 HD
ENDBRANCH   7  15
ENDBRANCH   2   5
BRANCH   3  17
ATOM     17  C   UNL     1     -32.472 -12.047  19.710  0.00  0.00    +0.141 C 
BRANCH  17  18
ATOM     18  C   UNL     1     -33.145 -10.802  20.257  0.00  0.00    -0.004 A 
ATOM     19  C   UNL     1     -33.756 -10.896  21.523  0.00  0.00    +0.007 A 
ATOM     20  C   UNL     1     -34.454  -9.819  22.062  0.00  0.00    +0.000 A 
ATOM     21  C   UNL     1     -34.547  -8.627  21.353  0.00  0.00    +0.002 A 
ATOM     22  C   UNL     1     -33.910  -8.494  20.120  0.00  0.00    +0.029 A 
ATOM     23  C   UNL     1     -33.162  -9.553  19.569  0.00  0.00    +0.110 A 
BRANCH  23  24
ATOM     24  S   UNL     1     -32.269  -9.312  18.039  0.00  0.00    +0.061 S 
ATOM     25  O   UNL     1     -30.800  -9.243  18.356  0.00  0.00    -0.153 OA
ATOM     26  O   UNL     1     -32.696  -7.999  17.441  0.00  0.00    -0.153 OA
BRANCH  24  27
ATOM     27  N   UNL     1     -32.519 -10.528  16.807  0.00  0.00    -0.177 NA
ATOM     28  C   UNL     1     -31.376 -10.624  15.881  0.00  0.00    +0.109 C 
ATOM     29  C   UNL     1     -31.503 -11.877  15.000  0.00  0.00    +0.017 C 
ATOM     30  C   UNL     1     -32.958 -12.179  14.588  0.00  0.00    +0.003 C 
ATOM     31  C   UNL     1     -33.858 -10.947  14.716  0.00  0.00    +0.017 C 
ATOM     32  C   UNL     1     -33.849 -10.420  16.163  0.00  0.00    +0.109 C 
ENDBRANCH  24  27
ENDBRANCH  23  24
ENDBRANCH  17  18
ENDBRANCH   3  17
TORSDOF 6
ENDMDL
MODEL 7
REMARK VINA RESULT:    -4.357      2.170      4.412
REMARK INTER + INTRA:          -7.509
REMARK INTER:                  -5.842
REMARK INTRA:                  -1.666
REMARK UNBOUND:                -1.751
REMARK  Name = 
REMARK  6 active torsions:
REMARK  status: ('A' for Active; 'I' for Inactive)
REMARK    1  A    between atoms: C_2  and  C_20
REMARK    2  A    between atoms: N_3  and  C_4
REMARK    3  A    between atoms: C_4  and  C_5
REMARK    4  A    between atoms: C_10  and  S_11
REMARK    5  A    between atoms: S_11  and  N_14
REMARK    6  A    between atoms: C_22  and  O_23
REMARK                            x       y       z     vdW  Elec       q    Type
REMARK                         _______ _______ _______ _____ _____    ______ ____
ROOT
ATOM      1  O   UNL     1     -30.212  -9.228  16.016  0.00  0.00    -0.270 OA
ATOM      2  C   UNL     1     -31.099 -10.038  16.406  0.00  0.00    +0.245 C 
ATOM      3  N   UNL     1     -31.787  -9.814  17.647  0.00  0.00    -0.307 N 
ATOM      4  H   UNL     1     -32.564 -10.457  17.921  0.00  0.00    +0.149 HD
ENDROOT
BRANCH   2   5
ATOM      5  C   UNL     1     -31.467 -11.176  15.533  0.00  0.00    +0.051 A 
ATOM      6  C   UNL     1     -30.646 -12.313  15.556  0.00  0.00    +0.080 A 
ATOM      7  C   UNL     1     -30.919 -13.394  14.713  0.00  0.00    +0.214 A 
ATOM      8  N   UNL     1     -31.988 -13.350  13.879  0.00  0.00    -0.213 NA
ATOM      9  C   UNL     1     -32.826 -12.281  13.838  0.00  0.00    +0.076 A 
ATOM     10  C   UNL     1     -33.925 -12.301  12.971  0.00  0.00    +0.028 A 
ATOM     11  C   UNL     1     -34.814 -11.226  12.939  0.00  0.00    +0.002 A 
ATOM     12  C   UNL     1     -34.617 -10.130  13.780  0.00  0.00    +0.001 A 
ATOM     13  C   UNL     1     -33.523 -10.096  14.650  0.00  0.00    +0.011 A 
ATOM     14  C   UNL     1     -32.597 -11.160  14.676  0.00  0.00    +0.013 A 
BRANCH   7  15
ATOM     15  O   UNL     1     -30.101 -14.520  14.714  0.00  0.00    -0.492 OA
ATOM     16  H   UNL     1     -30.000 -15.104  13.890  0.00  0.00    +0.294 HD
ENDBRANCH   7  15
ENDBRANCH   2   5
BRANCH   3  17
ATOM     17  C   UNL     1     -31.446  -8.728  18.568  0.00  0.00    +0.141 C 
BRANCH  17  18
ATOM     18  C   UNL     1     -32.557  -8.521  19.580  0.00  0.00    -0.004 A 
ATOM     19  C   UNL     1     -33.027  -7.207  19.770  0.00  0.00    +0.007 A 
ATOM     20  C   UNL     1     -33.996  -6.924  20.730  0.00  0.00    +0.000 A 
ATOM     21  C   UNL     1     -34.518  -7.948  21.511  0.00  0.00    +0.002 A 
ATOM     22  C   UNL     1     -34.104  -9.265  21.309  0.00  0.00    +0.029 A 
ATOM     23  C   UNL     1     -33.156  -9.586  20.318  0.00  0.00    +0.110 A 
BRANCH  23  24
ATOM     24  S   UNL     1     -32.729 -11.294  20.013  0.00  0.00    +0.061 S 
ATOM     25  O   UNL     1     -33.372 -11.718  18.721  0.00  0.00    -0.153 OA
ATOM     26  O   UNL     1     -33.292 -12.132  21.129  0.00  0.00    -0.153 OA
BRANCH  24  27
ATOM     27  N   UNL     1     -31.019 -11.653  19.931  0.00  0.00    -0.177 NA
ATOM     28  C   UNL     1     -30.760 -13.000  19.391  0.00  0.00    +0.109 C 
ATOM     29  C   UNL     1     -29.266 -13.171  19.069  0.00  0.00    +0.017 C 
ATOM     30  C   UNL     1     -28.346 -12.473  20.092  0.00  0.00    +0.003 C 
ATOM     31  C   UNL     1     -29.063 -12.203  21.417  0.00  0.00    +0.017 C 
ATOM     32  C   UNL     1     -30.309 -11.327  21.189  0.00  0.00    +0.109 C 
ENDBRANCH  24  27
ENDBRANCH  23  24
ENDBRANCH  17  18
ENDBRANCH   3  17
TORSDOF 6
ENDMDL
MODEL 8
REMARK VINA RESULT:    -4.356      2.348      3.524
REMARK INTER + INTRA:          -7.508
REMARK INTER:                  -6.331
REMARK INTRA:                  -1.177
REMARK UNBOUND:                -1.751
REMARK  Name = 
REMARK  6 active torsions:
REMARK  status: ('A' for Active; 'I' for Inactive)
REMARK    1  A    between atoms: C_2  and  C_20
REMARK    2  A    between atoms: N_3  and  C_4
REMARK    3  A    between atoms: C_4  and  C_5
REMARK    4  A    between atoms: C_10  and  S_11
REMARK    5  A    between atoms: S_11  and  N_14
REMARK    6  A    between atoms: C_22  and  O_23
REMARK                            x       y       z     vdW  Elec       q    Type
REMARK                         _______ _______ _______ _____ _____    ______ ____
ROOT
ATOM      1  O   UNL     1     -32.088 -10.164  16.235  0.00  0.00    -0.270 OA
ATOM      2  C   UNL     1     -32.420 -11.382  16.234  0.00  0.00    +0.245 C 
ATOM      3  N   UNL     1     -32.890 -12.003  17.442  0.00  0.00    -0.307 N 
ATOM      4  H   UNL     1     -33.225 -12.993  17.408  0.00  0.00    +0.149 HD
ENDROOT
BRANCH   2   5
ATOM      5  C   UNL     1     -32.388 -12.135  14.961  0.00  0.00    +0.051 A 
ATOM      6  C   UNL     1     -33.428 -11.919  14.043  0.00  0.00    +0.080 A 
ATOM      7  C   UNL     1     -33.473 -12.644  12.850  0.00  0.00    +0.214 A 
ATOM      8  N   UNL     1     -32.503 -13.550  12.569  0.00  0.00    -0.213 NA
ATOM      9  C   UNL     1     -31.464 -13.777  13.414  0.00  0.00    +0.076 A 
ATOM     10  C   UNL     1     -30.482 -14.710  13.061  0.00  0.00    +0.028 A 
ATOM     11  C   UNL     1     -29.390 -14.932  13.902  0.00  0.00    +0.002 A 
ATOM     12  C   UNL     1     -29.267 -14.217  15.094  0.00  0.00    +0.001 A 
ATOM     13  C   UNL     1     -30.241 -13.282  15.458  0.00  0.00    +0.011 A 
ATOM     14  C   UNL     1     -31.367 -13.065  14.636  0.00  0.00    +0.013 A 
BRANCH   7  15
ATOM     15  O   UNL     1     -34.510 -12.452  11.940  0.00  0.00    -0.492 OA
ATOM     16  H   UNL     1     -34.726 -11.534  11.569  0.00  0.00    +0.294 HD
ENDBRANCH   7  15
ENDBRANCH   2   5
BRANCH   3  17
ATOM     17  C   UNL     1     -32.913 -11.322  18.737  0.00  0.00    +0.141 C 
BRANCH  17  18
ATOM     18  C   UNL     1     -31.611 -11.550  19.482  0.00  0.00    -0.004 A 
ATOM     19  C   UNL     1     -31.197 -12.883  19.675  0.00  0.00    +0.007 A 
ATOM     20  C   UNL     1     -30.051 -13.179  20.408  0.00  0.00    +0.000 A 
ATOM     21  C   UNL     1     -29.293 -12.150  20.954  0.00  0.00    +0.002 A 
ATOM     22  C   UNL     1     -29.655 -10.821  20.737  0.00  0.00    +0.029 A 
ATOM     23  C   UNL     1     -30.786 -10.491  19.965  0.00  0.00    +0.110 A 
BRANCH  23  24
ATOM     24  S   UNL     1     -31.158  -8.778  19.615  0.00  0.00    +0.061 S 
ATOM     25  O   UNL     1     -31.059  -8.567  18.129  0.00  0.00    -0.153 OA
ATOM     26  O   UNL     1     -30.127  -7.919  20.294  0.00  0.00    -0.153 OA
BRANCH  24  27
ATOM     27  N   UNL     1     -32.721  -8.208  20.158  0.00  0.00    -0.177 NA
ATOM     28  C   UNL     1     -33.358  -7.314  19.175  0.00  0.00    +0.109 C 
ATOM     29  C   UNL     1     -34.828  -7.065  19.550  0.00  0.00    +0.017 C 
ATOM     30  C   UNL     1     -35.051  -6.952  21.072  0.00  0.00    +0.003 C 
ATOM     31  C   UNL     1     -33.755  -6.623  21.818  0.00  0.00    +0.017 C 
ATOM     32  C   UNL     1     -32.689  -7.701  21.549  0.00  0.00    +0.109 C 
ENDBRANCH  24  27
ENDBRANCH  23  24
ENDBRANCH  17  18
ENDBRANCH   3  17
TORSDOF 6
ENDMDL
MODEL 9
REMARK VINA RESULT:    -4.329      2.893      5.895
REMARK INTER + INTRA:          -7.472
REMARK INTER:                  -5.841
REMARK INTRA:                  -1.631
REMARK UNBOUND:                -1.751
REMARK  Name = 
REMARK  6 active torsions:
REMARK  status: ('A' for Active; 'I' for Inactive)
REMARK    1  A    between atoms: C_2  and  C_20
REMARK    2  A    between atoms: N_3  and  C_4
REMARK    3  A    between atoms: C_4  and  C_5
REMARK    4  A    between atoms: C_10  and  S_11
REMARK    5  A    between atoms: S_11  and  N_14
REMARK    6  A    between atoms: C_22  and  O_23
REMARK                            x       y       z     vdW  Elec       q    Type
REMARK                         _______ _______ _______ _____ _____    ______ ____
ROOT
ATOM      1  O   UNL     1     -32.182 -11.858  21.300  0.00  0.00    -0.270 OA
ATOM      2  C   UNL     1     -31.218 -11.224  20.788  0.00  0.00    +0.245 C 
ATOM      3  N   UNL     1     -29.972 -11.892  20.529  0.00  0.00    -0.307 N 
ATOM      4  H   UNL     1     -29.207 -11.370  20.042  0.00  0.00    +0.149 HD
ENDROOT
BRANCH   2   5
ATOM      5  C   UNL     1     -31.414  -9.811  20.394  0.00  0.00    +0.051 A 
ATOM      6  C   UNL     1     -30.498  -8.862  20.876  0.00  0.00    +0.080 A 
ATOM      7  C   UNL     1     -30.668  -7.508  20.577  0.00  0.00    +0.214 A 
ATOM      8  N   UNL     1     -31.712  -7.109  19.808  0.00  0.00    -0.213 NA
ATOM      9  C   UNL     1     -32.610  -7.991  19.299  0.00  0.00    +0.076 A 
ATOM     10  C   UNL     1     -33.656  -7.522  18.496  0.00  0.00    +0.028 A 
ATOM     11  C   UNL     1     -34.569  -8.418  17.937  0.00  0.00    +0.002 A 
ATOM     12  C   UNL     1     -34.436  -9.788  18.169  0.00  0.00    +0.001 A 
ATOM     13  C   UNL     1     -33.397 -10.270  18.970  0.00  0.00    +0.011 A 
ATOM     14  C   UNL     1     -32.481  -9.378  19.567  0.00  0.00    +0.013 A 
BRANCH   7  15
ATOM     15  O   UNL     1     -29.777  -6.556  21.065  0.00  0.00    -0.492 OA
ATOM     16  H   UNL     1     -29.135  -6.066  20.452  0.00  0.00    +0.294 HD
ENDBRANCH   7  15
ENDBRANCH   2   5
BRANCH   3  17
ATOM     17  C   UNL     1     -29.706 -13.276  20.924  0.00  0.00    +0.141 C 
BRANCH  17  18
ATOM     18  C   UNL     1     -28.216 -13.560  20.898  0.00  0.00    -0.004 A 
ATOM     19  C   UNL     1     -27.703 -14.435  21.875  0.00  0.00    +0.007 A 
ATOM     20  C   UNL     1     -26.337 -14.692  21.961  0.00  0.00    +0.000 A 
ATOM     21  C   UNL     1     -25.461 -14.088  21.068  0.00  0.00    +0.002 A 
ATOM     22  C   UNL     1     -25.949 -13.255  20.061  0.00  0.00    +0.029 A 
ATOM     23  C   UNL     1     -27.329 -13.010  19.925  0.00  0.00    +0.110 A 
BRANCH  23  24
ATOM     24  S   UNL     1     -27.929 -12.026  18.559  0.00  0.00    +0.061 S 
ATOM     25  O   UNL     1     -26.879 -12.022  17.482  0.00  0.00    -0.153 OA
ATOM     26  O   UNL     1     -28.131 -10.616  19.041  0.00  0.00    -0.153 OA
BRANCH  24  27
ATOM     27  N   UNL     1     -29.448 -12.537  17.856  0.00  0.00    -0.177 NA
ATOM     28  C   UNL     1     -29.315 -13.795  17.100  0.00  0.00    +0.109 C 
ATOM     29  C   UNL     1     -30.701 -14.356  16.743  0.00  0.00    +0.017 C 
ATOM     30  C   UNL     1     -31.724 -13.257  16.391  0.00  0.00    +0.003 C 
ATOM     31  C   UNL     1     -31.042 -11.943  15.999  0.00  0.00    +0.017 C 
ATOM     32  C   UNL     1     -30.142 -11.440  17.144  0.00  0.00    +0.109 C 
ENDBRANCH  24  27
ENDBRANCH  23  24
ENDBRANCH  17  18
ENDBRANCH   3  17
TORSDOF 6
ENDMDL
