MODEL 1
REMARK VINA RESULT:    -4.948      0.000      0.000
REMARK INTER + INTRA:          -6.433
REMARK INTER:                  -6.105
REMARK INTRA:                  -0.329
REMARK UNBOUND:                -0.329
REMARK  Name = 
REMARK  4 active torsions:
REMARK  status: ('A' for Active; 'I' for Inactive)
REMARK    1  A    between atoms: C_2  and  C_3
REMARK    2  A    between atoms: N_13  and  C_14
REMARK    3  A    between atoms: C_14  and  C_15
REMARK    4  A    between atoms: C_19  and  N_21
REMARK                            x       y       z     vdW  Elec       q    Type
REMARK                         _______ _______ _______ _____ _____    ______ ____
ROOT
ATOM      1  C   UNL     1     -27.279 -13.109  20.161  0.00  0.00    +0.052 A 
ATOM      2  C   UNL     1     -28.436 -13.635  20.752  0.00  0.00    +0.021 A 
ATOM      3  C   UNL     1     -29.699 -13.228  20.310  0.00  0.00    +0.029 A 
ATOM      4  C   UNL     1     -29.813 -12.293  19.276  0.00  0.00    +0.073 A 
ATOM      5  N   UNL     1     -31.039 -11.894  18.847  0.00  0.00    -0.232 NA
ATOM      6  C   UNL     1     -31.200 -10.985  17.846  0.00  0.00    +0.120 A 
ATOM      7  C   UNL     1     -30.063 -10.441  17.223  0.00  0.00    +0.044 A 
ATOM      8  C   UNL     1     -28.789 -10.829  17.643  0.00  0.00    +0.013 A 
ATOM      9  C   UNL     1     -28.650 -11.761  18.678  0.00  0.00    +0.002 A 
ATOM     10  C   UNL     1     -27.385 -12.173  19.124  0.00  0.00    +0.029 A 
ATOM     11  N   UNL     1     -32.534 -10.617  17.455  0.00  0.00    -0.325 N 
ATOM     12  H   UNL     1     -33.331 -11.129  17.895  0.00  0.00    +0.148 HD
ENDROOT
BRANCH   1  14
ATOM     13  N   UNL     1     -24.939 -13.872  20.987  0.00  0.00    -0.191 NA
ATOM     14  C   UNL     1     -25.981 -13.532  20.619  0.00  0.00    +0.099 C 
ENDBRANCH   1  14
BRANCH  11  15
ATOM     15  C   UNL     1     -32.860  -9.533  16.525  0.00  0.00    +0.138 C 
BRANCH  15  16
ATOM     16  C   UNL     1     -33.478 -10.080  15.265  0.00  0.00    -0.028 A 
ATOM     17  C   UNL     1     -34.495  -9.373  14.606  0.00  0.00    +0.005 A 
ATOM     18  C   UNL     1     -35.061  -9.883  13.436  0.00  0.00    +0.003 A 
ATOM     19  C   UNL     1     -34.612 -11.095  12.908  0.00  0.00    +0.033 A 
ATOM     20  C   UNL     1     -33.586 -11.813  13.544  0.00  0.00    +0.127 A 
ATOM     21  C   UNL     1     -33.020 -11.293  14.724  0.00  0.00    +0.038 A 
BRANCH  20  22
ATOM     22  N   UNL     1     -33.122 -13.060  12.995  0.00  0.00    +0.056 N 
ATOM     23  O   UNL     1     -32.006 -13.678  13.510  0.00  0.00    -0.126 OA
ATOM     24  O   UNL     1     -33.721 -13.600  12.042  0.00  0.00    -0.126 OA
ENDBRANCH  20  22
ENDBRANCH  15  16
ENDBRANCH  11  15
TORSDOF 4
ENDMDL
MODEL 2
REMARK VINA RESULT:    -4.348      4.556      6.339
REMARK INTER + INTRA:          -5.693
REMARK INTER:                  -5.407
REMARK INTRA:                  -0.285
REMARK UNBOUND:                -0.329
REMARK  Name = 
REMARK  4 active torsions:
REMARK  status: ('A' for Active; 'I' for Inactive)
REMARK    1  A    between atoms: C_2  and  C_3
REMARK    2  A    between atoms: N_13  and  C_14
REMARK    3  A    between atoms: C_14  and  C_15
REMARK    4  A    between atoms: C_19  and  N_21
REMARK                            x       y       z     vdW  Elec       q    Type
REMARK                         _______ _______ _______ _____ _____    ______ ____
ROOT
ATOM      1  C   UNL     1     -29.996 -14.085  13.866  0.00  0.00    +0.052 A 
ATOM      2  C   UNL     1     -29.898 -14.623  15.156  0.00  0.00    +0.021 A 
ATOM      3  C   UNL     1     -30.671 -14.101  16.197  0.00  0.00    +0.029 A 
ATOM      4  C   UNL     1     -31.547 -13.038  15.955  0.00  0.00    +0.073 A 
ATOM      5  N   UNL     1     -32.299 -12.527  16.966  0.00  0.00    -0.232 NA
ATOM      6  C   UNL     1     -33.163 -11.492  16.780  0.00  0.00    +0.120 A 
ATOM      7  C   UNL     1     -33.296 -10.930  15.497  0.00  0.00    +0.044 A 
ATOM      8  C   UNL     1     -32.535 -11.431  14.439  0.00  0.00    +0.013 A 
ATOM      9  C   UNL     1     -31.650 -12.493  14.657  0.00  0.00    +0.002 A 
ATOM     10  C   UNL     1     -30.872 -13.021  13.616  0.00  0.00    +0.029 A 
ATOM     11  N   UNL     1     -33.918 -11.010  17.905  0.00  0.00    -0.325 N 
ATOM     12  H   UNL     1     -33.839 -11.534  18.806  0.00  0.00    +0.148 HD
ENDROOT
BRANCH   1  14
ATOM     13  N   UNL     1     -28.556 -15.062  11.939  0.00  0.00    -0.191 NA
ATOM     14  C   UNL     1     -29.197 -14.627  12.797  0.00  0.00    +0.099 C 
ENDBRANCH   1  14
BRANCH  11  15
ATOM     15  C   UNL     1     -34.746  -9.803  17.896  0.00  0.00    +0.138 C 
BRANCH  15  16
ATOM     16  C   UNL     1     -34.028  -8.660  18.565  0.00  0.00    -0.028 A 
ATOM     17  C   UNL     1     -34.698  -7.455  18.830  0.00  0.00    +0.005 A 
ATOM     18  C   UNL     1     -34.028  -6.401  19.454  0.00  0.00    +0.003 A 
ATOM     19  C   UNL     1     -32.690  -6.541  19.827  0.00  0.00    +0.033 A 
ATOM     20  C   UNL     1     -32.004  -7.742  19.583  0.00  0.00    +0.127 A 
ATOM     21  C   UNL     1     -32.685  -8.801  18.953  0.00  0.00    +0.038 A 
BRANCH  20  22
ATOM     22  N   UNL     1     -30.625  -7.885  19.973  0.00  0.00    +0.056 N 
ATOM     23  O   UNL     1     -29.987  -6.882  20.664  0.00  0.00    -0.126 OA
ATOM     24  O   UNL     1     -29.985  -8.919  19.688  0.00  0.00    -0.126 OA
ENDBRANCH  20  22
ENDBRANCH  15  16
ENDBRANCH  11  15
TORSDOF 4
ENDMDL
MODEL 3
REMARK VINA RESULT:    -4.250      3.150      3.752
REMARK INTER + INTRA:          -5.572
REMARK INTER:                  -5.179
REMARK INTRA:                  -0.393
REMARK UNBOUND:                -0.329
REMARK  Name = 
REMARK  4 active torsions:
REMARK  status: ('A' for Active; 'I' for Inactive)
REMARK    1  A    between atoms: C_2  and  C_3
REMARK    2  A    between atoms: N_13  and  C_14
REMARK    3  A    between atoms: C_14  and  C_15
REMARK    4  A    between atoms: C_19  and  N_21
REMARK                            x       y       z     vdW  Elec       q    Type
REMARK                         _______ _______ _______ _____ _____    ______ ____
ROOT
ATOM      1  C   UNL     1     -27.418 -13.376  20.239  0.00  0.00    +0.052 A 
ATOM      2  C   UNL     1     -28.421 -13.366  21.217  0.00  0.00    +0.021 A 
ATOM      3  C   UNL     1     -29.759 -13.185  20.852  0.00  0.00    +0.029 A 
ATOM      4  C   UNL     1     -30.100 -13.011  19.507  0.00  0.00    +0.073 A 
ATOM      5  N   UNL     1     -31.400 -12.832  19.149  0.00  0.00    -0.232 NA
ATOM      6  C   UNL     1     -31.781 -12.656  17.854  0.00  0.00    +0.120 A 
ATOM      7  C   UNL     1     -30.803 -12.666  16.843  0.00  0.00    +0.044 A 
ATOM      8  C   UNL     1     -29.460 -12.846  17.179  0.00  0.00    +0.013 A 
ATOM      9  C   UNL     1     -29.093 -13.020  18.518  0.00  0.00    +0.002 A 
ATOM     10  C   UNL     1     -27.753 -13.203  18.890  0.00  0.00    +0.029 A 
ATOM     11  N   UNL     1     -33.177 -12.470  17.563  0.00  0.00    -0.325 N 
ATOM     12  H   UNL     1     -33.857 -12.567  18.351  0.00  0.00    +0.148 HD
ENDROOT
BRANCH   1  14
ATOM     13  N   UNL     1     -24.938 -13.714  20.929  0.00  0.00    -0.191 NA
ATOM     14  C   UNL     1     -26.042 -13.564  20.621  0.00  0.00    +0.099 C 
ENDBRANCH   1  14
BRANCH  11  15
ATOM     15  C   UNL     1     -33.712 -12.097  16.252  0.00  0.00    +0.138 C 
BRANCH  15  16
ATOM     16  C   UNL     1     -34.079 -10.637  16.222  0.00  0.00    -0.028 A 
ATOM     17  C   UNL     1     -34.317  -9.986  15.001  0.00  0.00    +0.005 A 
ATOM     18  C   UNL     1     -34.663  -8.634  14.981  0.00  0.00    +0.003 A 
ATOM     19  C   UNL     1     -34.783  -7.921  16.175  0.00  0.00    +0.033 A 
ATOM     20  C   UNL     1     -34.562  -8.554  17.409  0.00  0.00    +0.127 A 
ATOM     21  C   UNL     1     -34.214  -9.919  17.423  0.00  0.00    +0.038 A 
BRANCH  20  22
ATOM     22  N   UNL     1     -34.691  -7.818  18.639  0.00  0.00    +0.056 N 
ATOM     23  O   UNL     1     -34.410  -8.416  19.845  0.00  0.00    -0.126 OA
ATOM     24  O   UNL     1     -35.062  -6.625  18.633  0.00  0.00    -0.126 OA
ENDBRANCH  20  22
ENDBRANCH  15  16
ENDBRANCH  11  15
TORSDOF 4
ENDMDL
MODEL 4
REMARK VINA RESULT:    -3.974      4.752      6.831
REMARK INTER + INTRA:          -5.231
REMARK INTER:                  -4.856
REMARK INTRA:                  -0.375
REMARK UNBOUND:                -0.329
REMARK  Name = 
REMARK  4 active torsions:
REMARK  status: ('A' for Active; 'I' for Inactive)
REMARK    1  A    between atoms: C_2  and  C_3
REMARK    2  A    between atoms: N_13  and  C_14
REMARK    3  A    between atoms: C_14  and  C_15
REMARK    4  A    between atoms: C_19  and  N_21
REMARK                            x       y       z     vdW  Elec       q    Type
REMARK                         _______ _______ _______ _____ _____    ______ ____
ROOT
ATOM      1  C   UNL     1     -29.267 -14.190  13.708  0.00  0.00    +0.052 A 
ATOM      2  C   UNL     1     -30.572 -13.853  13.325  0.00  0.00    +0.021 A 
ATOM      3  C   UNL     1     -31.485 -13.382  14.274  0.00  0.00    +0.029 A 
ATOM      4  C   UNL     1     -31.098 -13.246  15.611  0.00  0.00    +0.073 A 
ATOM      5  N   UNL     1     -31.984 -12.791  16.536  0.00  0.00    -0.232 NA
ATOM      6  C   UNL     1     -31.655 -12.644  17.850  0.00  0.00    +0.120 A 
ATOM      7  C   UNL     1     -30.353 -12.966  18.271  0.00  0.00    +0.044 A 
ATOM      8  C   UNL     1     -29.421 -13.438  17.345  0.00  0.00    +0.013 A 
ATOM      9  C   UNL     1     -29.785 -13.584  16.001  0.00  0.00    +0.002 A 
ATOM     10  C   UNL     1     -28.873 -14.056  15.046  0.00  0.00    +0.029 A 
ATOM     11  N   UNL     1     -32.655 -12.159  18.763  0.00  0.00    -0.325 N 
ATOM     12  H   UNL     1     -33.571 -11.851  18.365  0.00  0.00    +0.148 HD
ENDROOT
BRANCH   1  14
ATOM     13  N   UNL     1     -27.580 -15.062  11.938  0.00  0.00    -0.191 NA
ATOM     14  C   UNL     1     -28.332 -14.674  12.726  0.00  0.00    +0.099 C 
ENDBRANCH   1  14
BRANCH  11  15
ATOM     15  C   UNL     1     -32.503 -12.117  20.218  0.00  0.00    +0.138 C 
BRANCH  15  16
ATOM     16  C   UNL     1     -32.855 -10.754  20.752  0.00  0.00    -0.028 A 
ATOM     17  C   UNL     1     -33.989 -10.576  21.560  0.00  0.00    +0.005 A 
ATOM     18  C   UNL     1     -34.308  -9.311  22.055  0.00  0.00    +0.003 A 
ATOM     19  C   UNL     1     -33.495  -8.214  21.760  0.00  0.00    +0.033 A 
ATOM     20  C   UNL     1     -32.348  -8.371  20.965  0.00  0.00    +0.127 A 
ATOM     21  C   UNL     1     -32.033  -9.651  20.467  0.00  0.00    +0.038 A 
BRANCH  20  22
ATOM     22  N   UNL     1     -31.509  -7.241  20.665  0.00  0.00    +0.056 N 
ATOM     23  O   UNL     1     -30.172  -7.414  20.393  0.00  0.00    -0.126 OA
ATOM     24  O   UNL     1     -31.980  -6.084  20.649  0.00  0.00    -0.126 OA
ENDBRANCH  20  22
ENDBRANCH  15  16
ENDBRANCH  11  15
TORSDOF 4
ENDMDL
MODEL 5
REMARK VINA RESULT:    -3.852      3.443      5.284
REMARK INTER + INTRA:          -5.082
REMARK INTER:                  -4.664
REMARK INTRA:                  -0.418
REMARK UNBOUND:                -0.329
REMARK  Name = 
REMARK  4 active torsions:
REMARK  status: ('A' for Active; 'I' for Inactive)
REMARK    1  A    between atoms: C_2  and  C_3
REMARK    2  A    between atoms: N_13  and  C_14
REMARK    3  A    between atoms: C_14  and  C_15
REMARK    4  A    between atoms: C_19  and  N_21
REMARK                            x       y       z     vdW  Elec       q    Type
REMARK                         _______ _______ _______ _____ _____    ______ ____
ROOT
ATOM      1  C   UNL     1     -31.572  -7.487  20.224  0.00  0.00    +0.052 A 
ATOM      2  C   UNL     1     -32.806  -7.715  19.601  0.00  0.00    +0.021 A 
ATOM      3  C   UNL     1     -33.047  -8.920  18.934  0.00  0.00    +0.029 A 
ATOM      4  C   UNL     1     -32.054  -9.904  18.886  0.00  0.00    +0.073 A 
ATOM      5  N   UNL     1     -32.284 -11.076  18.236  0.00  0.00    -0.232 NA
ATOM      6  C   UNL     1     -31.348 -12.063  18.159  0.00  0.00    +0.120 A 
ATOM      7  C   UNL     1     -30.100 -11.874  18.778  0.00  0.00    +0.044 A 
ATOM      8  C   UNL     1     -29.832 -10.680  19.451  0.00  0.00    +0.013 A 
ATOM      9  C   UNL     1     -30.809  -9.680  19.512  0.00  0.00    +0.002 A 
ATOM     10  C   UNL     1     -30.573  -8.469  20.180  0.00  0.00    +0.029 A 
ATOM     11  N   UNL     1     -31.674 -13.270  17.449  0.00  0.00    -0.325 N 
ATOM     12  H   UNL     1     -32.650 -13.380  17.095  0.00  0.00    +0.148 HD
ENDROOT
BRANCH   1  14
ATOM     13  N   UNL     1     -31.136  -5.246  21.460  0.00  0.00    -0.191 NA
ATOM     14  C   UNL     1     -31.330  -6.244  20.910  0.00  0.00    +0.099 C 
ENDBRANCH   1  14
BRANCH  11  15
ATOM     15  C   UNL     1     -30.718 -14.334  17.136  0.00  0.00    +0.138 C 
BRANCH  15  16
ATOM     16  C   UNL     1     -30.374 -14.326  15.670  0.00  0.00    -0.028 A 
ATOM     17  C   UNL     1     -29.157 -14.862  15.220  0.00  0.00    +0.005 A 
ATOM     18  C   UNL     1     -28.846 -14.856  13.859  0.00  0.00    +0.003 A 
ATOM     19  C   UNL     1     -29.747 -14.326  12.934  0.00  0.00    +0.033 A 
ATOM     20  C   UNL     1     -30.977 -13.796  13.360  0.00  0.00    +0.127 A 
ATOM     21  C   UNL     1     -31.284 -13.805  14.735  0.00  0.00    +0.038 A 
BRANCH  20  22
ATOM     22  N   UNL     1     -31.907 -13.254  12.404  0.00  0.00    +0.056 N 
ATOM     23  O   UNL     1     -32.989 -13.993  11.984  0.00  0.00    -0.126 OA
ATOM     24  O   UNL     1     -31.746 -12.107  11.938  0.00  0.00    -0.126 OA
ENDBRANCH  20  22
ENDBRANCH  15  16
ENDBRANCH  11  15
TORSDOF 4
ENDMDL
MODEL 6
REMARK VINA RESULT:    -3.549      4.118      5.231
REMARK INTER + INTRA:          -4.708
REMARK INTER:                  -4.903
REMARK INTRA:                   0.195
REMARK UNBOUND:                -0.329
REMARK  Name = 
REMARK  4 active torsions:
REMARK  status: ('A' for Active; 'I' for Inactive)
REMARK    1  A    between atoms: C_2  and  C_3
REMARK    2  A    between atoms: N_13  and  C_14
REMARK    3  A    between atoms: C_14  and  C_15
REMARK    4  A    between atoms: C_19  and  N_21
REMARK                            x       y       z     vdW  Elec       q    Type
REMARK                         _______ _______ _______ _____ _____    ______ ____
ROOT
ATOM      1  C   UNL     1     -32.238  -8.489  20.208  0.00  0.00    +0.052 A 
ATOM      2  C   UNL     1     -33.321  -9.341  20.462  0.00  0.00    +0.021 A 
ATOM      3  C   UNL     1     -33.781 -10.210  19.467  0.00  0.00    +0.029 A 
ATOM      4  C   UNL     1     -33.161 -10.231  18.213  0.00  0.00    +0.073 A 
ATOM      5  N   UNL     1     -33.608 -11.073  17.244  0.00  0.00    -0.232 NA
ATOM      6  C   UNL     1     -33.038 -11.127  16.008  0.00  0.00    +0.120 A 
ATOM      7  C   UNL     1     -31.945 -10.292  15.718  0.00  0.00    +0.044 A 
ATOM      8  C   UNL     1     -31.465  -9.414  16.692  0.00  0.00    +0.013 A 
ATOM      9  C   UNL     1     -32.070  -9.374  17.954  0.00  0.00    +0.002 A 
ATOM     10  C   UNL     1     -31.612  -8.505  18.955  0.00  0.00    +0.029 A 
ATOM     11  N   UNL     1     -33.575 -12.045  15.039  0.00  0.00    -0.325 N 
ATOM     12  H   UNL     1     -34.327 -12.700  15.352  0.00  0.00    +0.148 HD
ENDROOT
BRANCH   1  14
ATOM     13  N   UNL     1     -31.392  -6.880  22.062  0.00  0.00    -0.191 NA
ATOM     14  C   UNL     1     -31.769  -7.597  21.237  0.00  0.00    +0.099 C 
ENDBRANCH   1  14
BRANCH  11  15
ATOM     15  C   UNL     1     -33.185 -12.089  13.629  0.00  0.00    +0.138 C 
BRANCH  15  16
ATOM     16  C   UNL     1     -32.077 -13.086  13.414  0.00  0.00    -0.028 A 
ATOM     17  C   UNL     1     -31.881 -13.673  12.154  0.00  0.00    +0.005 A 
ATOM     18  C   UNL     1     -30.849 -14.593  11.959  0.00  0.00    +0.003 A 
ATOM     19  C   UNL     1     -29.998 -14.928  13.014  0.00  0.00    +0.033 A 
ATOM     20  C   UNL     1     -30.167 -14.343  14.280  0.00  0.00    +0.127 A 
ATOM     21  C   UNL     1     -31.211 -13.416  14.469  0.00  0.00    +0.038 A 
BRANCH  20  22
ATOM     22  N   UNL     1     -29.285 -14.687  15.365  0.00  0.00    +0.056 N 
ATOM     23  O   UNL     1     -27.920 -14.626  15.203  0.00  0.00    -0.126 OA
ATOM     24  O   UNL     1     -29.743 -15.048  16.469  0.00  0.00    -0.126 OA
ENDBRANCH  20  22
ENDBRANCH  15  16
ENDBRANCH  11  15
TORSDOF 4
ENDMDL
MODEL 7
REMARK VINA RESULT:    -3.235      4.620      6.884
REMARK INTER + INTRA:          -4.320
REMARK INTER:                  -3.912
REMARK INTRA:                  -0.409
REMARK UNBOUND:                -0.329
REMARK  Name = 
REMARK  4 active torsions:
REMARK  status: ('A' for Active; 'I' for Inactive)
REMARK    1  A    between atoms: C_2  and  C_3
REMARK    2  A    between atoms: N_13  and  C_14
REMARK    3  A    between atoms: C_14  and  C_15
REMARK    4  A    between atoms: C_19  and  N_21
REMARK                            x       y       z     vdW  Elec       q    Type
REMARK                         _______ _______ _______ _____ _____    ______ ____
ROOT
ATOM      1  C   UNL     1     -30.686 -13.705  14.263  0.00  0.00    +0.052 A 
ATOM      2  C   UNL     1     -30.133 -14.431  15.327  0.00  0.00    +0.021 A 
ATOM      3  C   UNL     1     -29.979 -13.834  16.582  0.00  0.00    +0.029 A 
ATOM      4  C   UNL     1     -30.376 -12.508  16.781  0.00  0.00    +0.073 A 
ATOM      5  N   UNL     1     -30.225 -11.925  18.000  0.00  0.00    -0.232 NA
ATOM      6  C   UNL     1     -30.594 -10.636  18.241  0.00  0.00    +0.120 A 
ATOM      7  C   UNL     1     -31.160  -9.877  17.201  0.00  0.00    +0.044 A 
ATOM      8  C   UNL     1     -31.326 -10.448  15.937  0.00  0.00    +0.013 A 
ATOM      9  C   UNL     1     -30.934 -11.773  15.713  0.00  0.00    +0.002 A 
ATOM     10  C   UNL     1     -31.087 -12.376  14.456  0.00  0.00    +0.029 A 
ATOM     11  N   UNL     1     -30.396 -10.096  19.559  0.00  0.00    -0.325 N 
ATOM     12  H   UNL     1     -30.058 -10.743  20.306  0.00  0.00    +0.148 HD
ENDROOT
BRANCH   1  14
ATOM     13  N   UNL     1     -30.970 -14.824  11.938  0.00  0.00    -0.191 NA
ATOM     14  C   UNL     1     -30.843 -14.325  12.973  0.00  0.00    +0.099 C 
ENDBRANCH   1  14
BRANCH  11  15
ATOM     15  C   UNL     1     -30.579  -8.688  19.917  0.00  0.00    +0.138 C 
BRANCH  15  16
ATOM     16  C   UNL     1     -31.984  -8.441  20.402  0.00  0.00    -0.028 A 
ATOM     17  C   UNL     1     -32.591  -9.324  21.309  0.00  0.00    +0.005 A 
ATOM     18  C   UNL     1     -33.891  -9.086  21.759  0.00  0.00    +0.003 A 
ATOM     19  C   UNL     1     -34.594  -7.964  21.317  0.00  0.00    +0.033 A 
ATOM     20  C   UNL     1     -34.001  -7.059  20.420  0.00  0.00    +0.127 A 
ATOM     21  C   UNL     1     -32.689  -7.305  19.970  0.00  0.00    +0.038 A 
BRANCH  20  22
ATOM     22  N   UNL     1     -34.726  -5.900  19.969  0.00  0.00    +0.056 N 
ATOM     23  O   UNL     1     -35.060  -5.757  18.642  0.00  0.00    -0.126 OA
ATOM     24  O   UNL     1     -35.062  -5.005  20.773  0.00  0.00    -0.126 OA
ENDBRANCH  20  22
ENDBRANCH  15  16
ENDBRANCH  11  15
TORSDOF 4
ENDMDL
