MODEL 1
REMARK VINA RESULT:    -3.658      0.000      0.000
REMARK INTER + INTRA:          -5.168
REMARK INTER:                  -4.514
REMARK INTRA:                  -0.654
REMARK UNBOUND:                -0.654
REMARK  Name = 
REMARK  6 active torsions:
REMARK  status: ('A' for Active; 'I' for Inactive)
REMARK    1  A    between atoms: C_1  and  C_2
REMARK    2  A    between atoms: C_2  and  C_3
REMARK    3  A    between atoms: C_3  and  C_4
REMARK    4  A    between atoms: C_3  and  N_6
REMARK    5  A    between atoms: C_4  and  C_5
REMARK    6  A    between atoms: C_10  and  N_14
REMARK                            x       y       z     vdW  Elec       q    Type
REMARK                         _______ _______ _______ _____ _____    ______ ____
ROOT
ATOM      1  N   UNL     1     -31.319 -13.007  19.974  0.00  0.00    -0.311 N 
ATOM      2  C   UNL     1     -29.891 -13.096  20.060  0.00  0.00    +0.217 A 
ATOM      3  N   UNL     1     -29.100 -12.374  19.224  0.00  0.00    -0.221 NA
ATOM      4  C   UNL     1     -27.747 -12.451  19.297  0.00  0.00    +0.150 A 
ATOM      5  C   UNL     1     -27.136 -13.274  20.252  0.00  0.00    +0.184 A 
ATOM      6  C   UNL     1     -27.973 -14.038  21.095  0.00  0.00    +0.152 A 
ATOM      7  N   UNL     1     -27.446 -14.981  22.033  0.00  0.00    -0.341 N 
ATOM      8  N   UNL     1     -29.324 -13.920  20.978  0.00  0.00    -0.198 NA
ATOM      9  H   UNL     1     -31.886 -13.565  20.652  0.00  0.00    +0.149 HD
ATOM     10  H   UNL     1     -28.091 -15.470  22.692  0.00  0.00    +0.144 HD
ATOM     11  H   UNL     1     -26.452 -15.293  22.007  0.00  0.00    +0.144 HD
ENDROOT
BRANCH   5  12
ATOM     12  N   UNL     1     -25.704 -13.295  20.363  0.00  0.00    +0.061 N 
ATOM     13  O   UNL     1     -24.938 -12.565  19.483  0.00  0.00    -0.126 OA
ATOM     14  O   UNL     1     -25.156 -13.789  21.370  0.00  0.00    -0.126 OA
ENDBRANCH   5  12
BRANCH   1  15
ATOM     15  C   UNL     1     -31.997 -12.140  19.001  0.00  0.00    +0.073 C 
BRANCH  15  17
ATOM     16  C   UNL     1     -31.915 -12.366  16.452  0.00  0.00    +0.006 C 
ATOM     17  C   UNL     1     -32.417 -12.976  17.761  0.00  0.00    +0.019 C 
ENDBRANCH  15  17
BRANCH  15  18
ATOM     18  C   UNL     1     -33.204 -11.452  19.680  0.00  0.00    +0.019 C 
ATOM     19  C   UNL     1     -32.799 -10.502  20.805  0.00  0.00    +0.006 C 
ENDBRANCH  15  18
ENDBRANCH   1  15
TORSDOF 4
ENDMDL
MODEL 2
REMARK VINA RESULT:    -3.655      1.963      2.380
REMARK INTER + INTRA:          -5.164
REMARK INTER:                  -4.508
REMARK INTRA:                  -0.656
REMARK UNBOUND:                -0.654
REMARK  Name = 
REMARK  6 active torsions:
REMARK  status: ('A' for Active; 'I' for Inactive)
REMARK    1  A    between atoms: C_1  and  C_2
REMARK    2  A    between atoms: C_2  and  C_3
REMARK    3  A    between atoms: C_3  and  C_4
REMARK    4  A    between atoms: C_3  and  N_6
REMARK    5  A    between atoms: C_4  and  C_5
REMARK    6  A    between atoms: C_10  and  N_14
REMARK                            x       y       z     vdW  Elec       q    Type
REMARK                         _______ _______ _______ _____ _____    ______ ____
ROOT
ATOM      1  N   UNL     1     -30.990 -11.123  17.945  0.00  0.00    -0.311 N 
ATOM      2  C   UNL     1     -29.697 -11.585  18.360  0.00  0.00    +0.217 A 
ATOM      3  N   UNL     1     -28.570 -10.942  17.959  0.00  0.00    -0.221 NA
ATOM      4  C   UNL     1     -27.342 -11.371  18.346  0.00  0.00    +0.150 A 
ATOM      5  C   UNL     1     -27.214 -12.486  19.184  0.00  0.00    +0.184 A 
ATOM      6  C   UNL     1     -28.394 -13.158  19.570  0.00  0.00    +0.152 A 
ATOM      7  N   UNL     1     -28.362 -14.363  20.341  0.00  0.00    -0.341 N 
ATOM      8  N   UNL     1     -29.599 -12.683  19.153  0.00  0.00    -0.198 NA
ATOM      9  H   UNL     1     -31.829 -11.638  18.297  0.00  0.00    +0.149 HD
ATOM     10  H   UNL     1     -29.256 -14.788  20.673  0.00  0.00    +0.144 HD
ATOM     11  H   UNL     1     -27.484 -14.906  20.487  0.00  0.00    +0.144 HD
ENDROOT
BRANCH   5  12
ATOM     12  N   UNL     1     -25.912 -12.888  19.641  0.00  0.00    +0.061 N 
ATOM     13  O   UNL     1     -25.681 -14.200  19.985  0.00  0.00    -0.126 OA
ATOM     14  O   UNL     1     -24.938 -12.116  19.526  0.00  0.00    -0.126 OA
ENDBRANCH   5  12
BRANCH   1  15
ATOM     15  C   UNL     1     -31.166  -9.946  17.085  0.00  0.00    +0.073 C 
BRANCH  15  17
ATOM     16  C   UNL     1     -32.769 -10.394  15.140  0.00  0.00    +0.006 C 
ATOM     17  C   UNL     1     -31.313 -10.398  15.606  0.00  0.00    +0.019 C 
ENDBRANCH  15  17
BRANCH  15  18
ATOM     18  C   UNL     1     -32.388  -9.134  17.572  0.00  0.00    +0.019 C 
ATOM     19  C   UNL     1     -32.141  -8.413  18.896  0.00  0.00    +0.006 C 
ENDBRANCH  15  18
ENDBRANCH   1  15
TORSDOF 4
ENDMDL
MODEL 3
REMARK VINA RESULT:    -3.624      1.971      2.288
REMARK INTER + INTRA:          -5.126
REMARK INTER:                  -4.486
REMARK INTRA:                  -0.640
REMARK UNBOUND:                -0.654
REMARK  Name = 
REMARK  6 active torsions:
REMARK  status: ('A' for Active; 'I' for Inactive)
REMARK    1  A    between atoms: C_1  and  C_2
REMARK    2  A    between atoms: C_2  and  C_3
REMARK    3  A    between atoms: C_3  and  C_4
REMARK    4  A    between atoms: C_3  and  N_6
REMARK    5  A    between atoms: C_4  and  C_5
REMARK    6  A    between atoms: C_10  and  N_14
REMARK                            x       y       z     vdW  Elec       q    Type
REMARK                         _______ _______ _______ _____ _____    ______ ____
ROOT
ATOM      1  N   UNL     1     -30.672 -11.832  17.811  0.00  0.00    -0.311 N 
ATOM      2  C   UNL     1     -29.481 -12.224  18.504  0.00  0.00    +0.217 A 
ATOM      3  N   UNL     1     -28.262 -11.791  18.088  0.00  0.00    -0.221 NA
ATOM      4  C   UNL     1     -27.128 -12.156  18.737  0.00  0.00    +0.150 A 
ATOM      5  C   UNL     1     -27.194 -12.984  19.866  0.00  0.00    +0.184 A 
ATOM      6  C   UNL     1     -28.465 -13.447  20.268  0.00  0.00    +0.152 A 
ATOM      7  N   UNL     1     -28.627 -14.374  21.346  0.00  0.00    -0.341 N 
ATOM      8  N   UNL     1     -29.569 -13.047  19.581  0.00  0.00    -0.198 NA
ATOM      9  H   UNL     1     -31.589 -12.173  18.182  0.00  0.00    +0.149 HD
ATOM     10  H   UNL     1     -29.587 -14.634  21.665  0.00  0.00    +0.144 HD
ATOM     11  H   UNL     1     -27.824 -14.899  21.752  0.00  0.00    +0.144 HD
ENDROOT
BRANCH   5  12
ATOM     12  N   UNL     1     -25.991 -13.308  20.582  0.00  0.00    +0.061 N 
ATOM     13  O   UNL     1     -26.046 -13.560  21.934  0.00  0.00    -0.126 OA
ATOM     14  O   UNL     1     -24.940 -13.572  19.963  0.00  0.00    -0.126 OA
ENDBRANCH   5  12
BRANCH   1  15
ATOM     15  C   UNL     1     -30.646 -10.949  16.638  0.00  0.00    +0.073 C 
BRANCH  15  17
ATOM     16  C   UNL     1     -30.802 -12.918  15.009  0.00  0.00    +0.006 C 
ATOM     17  C   UNL     1     -31.436 -11.607  15.472  0.00  0.00    +0.019 C 
ENDBRANCH  15  17
BRANCH  15  18
ATOM     18  C   UNL     1     -31.218  -9.565  17.024  0.00  0.00    +0.019 C 
ATOM     19  C   UNL     1     -32.679  -9.384  16.617  0.00  0.00    +0.006 C 
ENDBRANCH  15  18
ENDBRANCH   1  15
TORSDOF 4
ENDMDL
MODEL 4
REMARK VINA RESULT:    -3.522      3.453      5.044
REMARK INTER + INTRA:          -5.000
REMARK INTER:                  -4.489
REMARK INTRA:                  -0.511
REMARK UNBOUND:                -0.654
REMARK  Name = 
REMARK  6 active torsions:
REMARK  status: ('A' for Active; 'I' for Inactive)
REMARK    1  A    between atoms: C_1  and  C_2
REMARK    2  A    between atoms: C_2  and  C_3
REMARK    3  A    between atoms: C_3  and  C_4
REMARK    4  A    between atoms: C_3  and  N_6
REMARK    5  A    between atoms: C_4  and  C_5
REMARK    6  A    between atoms: C_10  and  N_14
REMARK                            x       y       z     vdW  Elec       q    Type
REMARK                         _______ _______ _______ _____ _____    ______ ____
ROOT
ATOM      1  N   UNL     1     -29.060 -13.980  15.260  0.00  0.00    -0.311 N 
ATOM      2  C   UNL     1     -29.265 -13.711  16.653  0.00  0.00    +0.217 A 
ATOM      3  N   UNL     1     -30.487 -13.886  17.221  0.00  0.00    -0.221 NA
ATOM      4  C   UNL     1     -30.691 -13.633  18.538  0.00  0.00    +0.150 A 
ATOM      5  C   UNL     1     -29.635 -13.196  19.347  0.00  0.00    +0.184 A 
ATOM      6  C   UNL     1     -28.378 -12.993  18.735  0.00  0.00    +0.152 A 
ATOM      7  N   UNL     1     -27.264 -12.455  19.454  0.00  0.00    -0.341 N 
ATOM      8  N   UNL     1     -28.230 -13.264  17.410  0.00  0.00    -0.198 NA
ATOM      9  H   UNL     1     -28.097 -13.851  14.874  0.00  0.00    +0.149 HD
ATOM     10  H   UNL     1     -26.331 -12.391  18.990  0.00  0.00    +0.144 HD
ATOM     11  H   UNL     1     -27.371 -12.007  20.389  0.00  0.00    +0.144 HD
ENDROOT
BRANCH   5  12
ATOM     12  N   UNL     1     -29.850 -12.997  20.754  0.00  0.00    +0.061 N 
ATOM     13  O   UNL     1     -28.816 -13.194  21.640  0.00  0.00    -0.126 OA
ATOM     14  O   UNL     1     -30.893 -12.445  21.160  0.00  0.00    -0.126 OA
ENDBRANCH   5  12
BRANCH   1  15
ATOM     15  C   UNL     1     -30.137 -14.460  14.384  0.00  0.00    +0.073 C 
BRANCH  15  17
ATOM     16  C   UNL     1     -31.671 -13.361  12.655  0.00  0.00    +0.006 C 
ATOM     17  C   UNL     1     -31.119 -13.296  14.079  0.00  0.00    +0.019 C 
ENDBRANCH  15  17
BRANCH  15  18
ATOM     18  C   UNL     1     -29.522 -15.060  13.098  0.00  0.00    +0.019 C 
ATOM     19  C   UNL     1     -27.994 -15.062  13.106  0.00  0.00    +0.006 C 
ENDBRANCH  15  18
ENDBRANCH   1  15
TORSDOF 4
ENDMDL
MODEL 5
REMARK VINA RESULT:    -3.490      3.468      5.083
REMARK INTER + INTRA:          -4.960
REMARK INTER:                  -4.317
REMARK INTRA:                  -0.644
REMARK UNBOUND:                -0.654
REMARK  Name = 
REMARK  6 active torsions:
REMARK  status: ('A' for Active; 'I' for Inactive)
REMARK    1  A    between atoms: C_1  and  C_2
REMARK    2  A    between atoms: C_2  and  C_3
REMARK    3  A    between atoms: C_3  and  C_4
REMARK    4  A    between atoms: C_3  and  N_6
REMARK    5  A    between atoms: C_4  and  C_5
REMARK    6  A    between atoms: C_10  and  N_14
REMARK                            x       y       z     vdW  Elec       q    Type
REMARK                         _______ _______ _______ _____ _____    ______ ____
ROOT
ATOM      1  N   UNL     1     -31.442 -13.803  15.052  0.00  0.00    -0.311 N 
ATOM      2  C   UNL     1     -30.996 -13.166  16.256  0.00  0.00    +0.217 A 
ATOM      3  N   UNL     1     -30.419 -11.937  16.218  0.00  0.00    -0.221 NA
ATOM      4  C   UNL     1     -29.994 -11.326  17.352  0.00  0.00    +0.150 A 
ATOM      5  C   UNL     1     -30.154 -11.950  18.596  0.00  0.00    +0.184 A 
ATOM      6  C   UNL     1     -30.731 -13.239  18.614  0.00  0.00    +0.152 A 
ATOM      7  N   UNL     1     -30.847 -13.999  19.821  0.00  0.00    -0.341 N 
ATOM      8  N   UNL     1     -31.141 -13.804  17.446  0.00  0.00    -0.198 NA
ATOM      9  H   UNL     1     -31.899 -14.740  15.134  0.00  0.00    +0.149 HD
ATOM     10  H   UNL     1     -31.348 -14.915  19.809  0.00  0.00    +0.144 HD
ATOM     11  H   UNL     1     -30.344 -13.735  20.695  0.00  0.00    +0.144 HD
ENDROOT
BRANCH   5  12
ATOM     12  N   UNL     1     -29.761 -11.263  19.794  0.00  0.00    +0.061 N 
ATOM     13  O   UNL     1     -29.378 -11.982  20.903  0.00  0.00    -0.126 OA
ATOM     14  O   UNL     1     -29.557 -10.031  19.776  0.00  0.00    -0.126 OA
ENDBRANCH   5  12
BRANCH   1  15
ATOM     15  C   UNL     1     -31.310 -13.172  13.732  0.00  0.00    +0.073 C 
BRANCH  15  17
ATOM     16  C   UNL     1     -29.250 -14.566  13.127  0.00  0.00    +0.006 C 
ATOM     17  C   UNL     1     -30.675 -14.178  12.733  0.00  0.00    +0.019 C 
ENDBRANCH  15  17
BRANCH  15  18
ATOM     18  C   UNL     1     -32.697 -12.675  13.261  0.00  0.00    +0.019 C 
ATOM     19  C   UNL     1     -33.142 -13.302  11.941  0.00  0.00    +0.006 C 
ENDBRANCH  15  18
ENDBRANCH   1  15
TORSDOF 4
ENDMDL
MODEL 6
REMARK VINA RESULT:    -3.448      4.816      6.579
REMARK INTER + INTRA:          -4.909
REMARK INTER:                  -4.588
REMARK INTRA:                  -0.321
REMARK UNBOUND:                -0.654
REMARK  Name = 
REMARK  6 active torsions:
REMARK  status: ('A' for Active; 'I' for Inactive)
REMARK    1  A    between atoms: C_1  and  C_2
REMARK    2  A    between atoms: C_2  and  C_3
REMARK    3  A    between atoms: C_3  and  C_4
REMARK    4  A    between atoms: C_3  and  N_6
REMARK    5  A    between atoms: C_4  and  C_5
REMARK    6  A    between atoms: C_10  and  N_14
REMARK                            x       y       z     vdW  Elec       q    Type
REMARK                         _______ _______ _______ _____ _____    ______ ____
ROOT
ATOM      1  N   UNL     1     -31.854 -12.033  14.236  0.00  0.00    -0.311 N 
ATOM      2  C   UNL     1     -31.589 -11.230  15.394  0.00  0.00    +0.217 A 
ATOM      3  N   UNL     1     -30.501 -11.472  16.170  0.00  0.00    -0.221 NA
ATOM      4  C   UNL     1     -30.240 -10.718  17.268  0.00  0.00    +0.150 A 
ATOM      5  C   UNL     1     -31.089  -9.660  17.617  0.00  0.00    +0.184 A 
ATOM      6  C   UNL     1     -32.230  -9.440  16.814  0.00  0.00    +0.152 A 
ATOM      7  N   UNL     1     -33.208  -8.449  17.145  0.00  0.00    -0.341 N 
ATOM      8  N   UNL     1     -32.441 -10.226  15.724  0.00  0.00    -0.198 NA
ATOM      9  H   UNL     1     -32.692 -11.795  13.657  0.00  0.00    +0.149 HD
ATOM     10  H   UNL     1     -33.998  -8.262  16.487  0.00  0.00    +0.144 HD
ATOM     11  H   UNL     1     -33.236  -7.985  18.078  0.00  0.00    +0.144 HD
ENDROOT
BRANCH   5  12
ATOM     12  N   UNL     1     -30.765  -8.828  18.743  0.00  0.00    +0.061 N 
ATOM     13  O   UNL     1     -31.687  -7.922  19.214  0.00  0.00    -0.126 OA
ATOM     14  O   UNL     1     -29.748  -9.064  19.428  0.00  0.00    -0.126 OA
ENDBRANCH   5  12
BRANCH   1  15
ATOM     15  C   UNL     1     -30.977 -13.137  13.826  0.00  0.00    +0.073 C 
BRANCH  15  17
ATOM     16  C   UNL     1     -29.628 -14.934  15.052  0.00  0.00    +0.006 C 
ATOM     17  C   UNL     1     -30.985 -14.243  14.917  0.00  0.00    +0.019 C 
ENDBRANCH  15  17
BRANCH  15  18
ATOM     18  C   UNL     1     -31.436 -13.671  12.448  0.00  0.00    +0.019 C 
ATOM     19  C   UNL     1     -32.849 -13.229  12.073  0.00  0.00    +0.006 C 
ENDBRANCH  15  18
ENDBRANCH   1  15
TORSDOF 4
ENDMDL
MODEL 7
REMARK VINA RESULT:    -3.265      5.435      7.012
REMARK INTER + INTRA:          -4.683
REMARK INTER:                  -4.041
REMARK INTRA:                  -0.642
REMARK UNBOUND:                -0.654
REMARK  Name = 
REMARK  6 active torsions:
REMARK  status: ('A' for Active; 'I' for Inactive)
REMARK    1  A    between atoms: C_1  and  C_2
REMARK    2  A    between atoms: C_2  and  C_3
REMARK    3  A    between atoms: C_3  and  C_4
REMARK    4  A    between atoms: C_3  and  N_6
REMARK    5  A    between atoms: C_4  and  C_5
REMARK    6  A    between atoms: C_10  and  N_14
REMARK                            x       y       z     vdW  Elec       q    Type
REMARK                         _______ _______ _______ _____ _____    ______ ____
ROOT
ATOM      1  N   UNL     1     -31.719 -11.946  13.888  0.00  0.00    -0.311 N 
ATOM      2  C   UNL     1     -32.114 -11.632  15.230  0.00  0.00    +0.217 A 
ATOM      3  N   UNL     1     -32.606 -12.595  16.051  0.00  0.00    -0.221 NA
ATOM      4  C   UNL     1     -32.983 -12.309  17.323  0.00  0.00    +0.150 A 
ATOM      5  C   UNL     1     -32.859 -11.005  17.821  0.00  0.00    +0.184 A 
ATOM      6  C   UNL     1     -32.372 -10.010  16.945  0.00  0.00    +0.152 A 
ATOM      7  N   UNL     1     -32.302  -8.633  17.327  0.00  0.00    -0.341 N 
ATOM      8  N   UNL     1     -32.007 -10.355  15.680  0.00  0.00    -0.198 NA
ATOM      9  H   UNL     1     -31.326 -11.175  13.301  0.00  0.00    +0.149 HD
ATOM     10  H   UNL     1     -31.864  -7.939  16.681  0.00  0.00    +0.144 HD
ATOM     11  H   UNL     1     -32.781  -8.268  18.177  0.00  0.00    +0.144 HD
ENDROOT
BRANCH   5  12
ATOM     12  N   UNL     1     -33.199 -10.730  19.189  0.00  0.00    +0.061 N 
ATOM     13  O   UNL     1     -33.812  -9.543  19.518  0.00  0.00    -0.126 OA
ATOM     14  O   UNL     1     -33.141 -11.635  20.047  0.00  0.00    -0.126 OA
ENDBRANCH   5  12
BRANCH   1  15
ATOM     15  C   UNL     1     -31.814 -13.304  13.337  0.00  0.00    +0.073 C 
BRANCH  15  17
ATOM     16  C   UNL     1     -33.832 -12.526  11.967  0.00  0.00    +0.006 C 
ATOM     17  C   UNL     1     -32.488 -13.254  11.938  0.00  0.00    +0.019 C 
ENDBRANCH  15  17
BRANCH  15  18
ATOM     18  C   UNL     1     -30.403 -13.936  13.285  0.00  0.00    +0.019 C 
ATOM     19  C   UNL     1     -30.078 -14.781  14.515  0.00  0.00    +0.006 C 
ENDBRANCH  15  18
ENDBRANCH   1  15
TORSDOF 4
ENDMDL
MODEL 8
REMARK VINA RESULT:    -3.218      2.228      3.594
REMARK INTER + INTRA:          -4.625
REMARK INTER:                  -3.982
REMARK INTRA:                  -0.643
REMARK UNBOUND:                -0.654
REMARK  Name = 
REMARK  6 active torsions:
REMARK  status: ('A' for Active; 'I' for Inactive)
REMARK    1  A    between atoms: C_1  and  C_2
REMARK    2  A    between atoms: C_2  and  C_3
REMARK    3  A    between atoms: C_3  and  C_4
REMARK    4  A    between atoms: C_3  and  N_6
REMARK    5  A    between atoms: C_4  and  C_5
REMARK    6  A    between atoms: C_10  and  N_14
REMARK                            x       y       z     vdW  Elec       q    Type
REMARK                         _______ _______ _______ _____ _____    ______ ____
ROOT
ATOM      1  N   UNL     1     -30.031 -10.035  17.193  0.00  0.00    -0.311 N 
ATOM      2  C   UNL     1     -29.236 -10.961  17.944  0.00  0.00    +0.217 A 
ATOM      3  N   UNL     1     -29.822 -11.939  18.683  0.00  0.00    -0.221 NA
ATOM      4  C   UNL     1     -29.079 -12.821  19.397  0.00  0.00    +0.150 A 
ATOM      5  C   UNL     1     -27.680 -12.746  19.377  0.00  0.00    +0.184 A 
ATOM      6  C   UNL     1     -27.088 -11.707  18.626  0.00  0.00    +0.152 A 
ATOM      7  N   UNL     1     -25.674 -11.487  18.623  0.00  0.00    -0.341 N 
ATOM      8  N   UNL     1     -27.882 -10.852  17.928  0.00  0.00    -0.198 NA
ATOM      9  H   UNL     1     -29.534  -9.313  16.624  0.00  0.00    +0.149 HD
ATOM     10  H   UNL     1     -25.266 -10.758  17.996  0.00  0.00    +0.144 HD
ATOM     11  H   UNL     1     -25.039 -11.943  19.312  0.00  0.00    +0.144 HD
ENDROOT
BRANCH   5  12
ATOM     12  N   UNL     1     -26.904 -13.727  20.084  0.00  0.00    +0.061 N 
ATOM     13  O   UNL     1     -27.530 -14.629  20.913  0.00  0.00    -0.126 OA
ATOM     14  O   UNL     1     -25.704 -13.911  19.793  0.00  0.00    -0.126 OA
ENDBRANCH   5  12
BRANCH   1  15
ATOM     15  C   UNL     1     -31.499 -10.094  17.172  0.00  0.00    +0.073 C 
BRANCH  15  17
ATOM     16  C   UNL     1     -33.567  -8.733  17.823  0.00  0.00    +0.006 C 
ATOM     17  C   UNL     1     -32.079  -8.972  18.077  0.00  0.00    +0.019 C 
ENDBRANCH  15  17
BRANCH  15  18
ATOM     18  C   UNL     1     -31.995  -9.982  15.712  0.00  0.00    +0.019 C 
ATOM     19  C   UNL     1     -31.890 -11.297  14.940  0.00  0.00    +0.006 C 
ENDBRANCH  15  18
ENDBRANCH   1  15
TORSDOF 4
ENDMDL
