MODEL 1
REMARK VINA RESULT:    -5.442      0.000      0.000
REMARK INTER + INTRA:          -8.895
REMARK INTER:                  -7.509
REMARK INTRA:                  -1.385
REMARK UNBOUND:                -1.385
REMARK  Name = 
REMARK  7 active torsions:
REMARK  status: ('A' for Active; 'I' for Inactive)
REMARK    1  A    between atoms: C_2  and  C_4
REMARK    2  A    between atoms: C_8  and  C_10
REMARK    3  A    between atoms: N_12  and  CA_13
REMARK    4  A    between atoms: CA_13  and  CB_14
REMARK    5  A    between atoms: CA_13  and  C_21
REMARK    6  A    between atoms: CB_14  and  CG_15
REMARK    7  A    between atoms: C_21  and  OXT_23
REMARK                            x       y       z     vdW  Elec       q    Type
REMARK                         _______ _______ _______ _____ _____    ______ ____
ROOT
ATOM      1  C   UNK A   0     -29.998 -14.141  17.188  0.00  0.00    +0.245 C 
ATOM      2  O   UNK A   0     -30.910 -14.646  17.899  0.00  0.00    -0.270 OA
ATOM      3  N   PHE A   1     -28.867 -13.517  17.821  0.00  0.00    -0.298 N 
ATOM      4  H   PHE A   1     -28.024 -13.299  17.242  0.00  0.00    +0.150 HD
ENDROOT
BRANCH   1   9
ATOM      5  C   UNK A   0     -31.266 -13.618  13.641  0.00  0.00    +0.037 A 
ATOM      6  C   UNK A   0     -30.316 -14.352  12.911  0.00  0.00    +0.013 A 
ATOM      7  C   UNK A   0     -29.264 -14.993  13.565  0.00  0.00    +0.001 A 
ATOM      8  C   UNK A   0     -29.151 -14.925  14.954  0.00  0.00    +0.013 A 
ATOM      9  C   UNK A   0     -30.103 -14.219  15.710  0.00  0.00    +0.037 A 
ATOM     10  C   UNK A   0     -31.154 -13.562  15.044  0.00  0.00    +0.026 A 
BRANCH   5  12
ATOM     11  N   UNK A   0     -33.156 -13.613  11.938  0.00  0.00    -0.325 N 
ATOM     12  C   UNK A   0     -32.379 -12.938  12.932  0.00  0.00    +0.242 C 
ATOM     13  O   UNK A   0     -32.662 -11.743  13.218  0.00  0.00    -0.270 OA
ATOM     14  H   UNK A   0     -33.072 -14.640  11.779  0.00  0.00    +0.145 HD
ATOM     15  H   UNK A   0     -33.893 -13.092  11.414  0.00  0.00    +0.145 HD
ENDBRANCH   5  12
ENDBRANCH   1   9
BRANCH   3  16
ATOM     16  CA  PHE A   1     -28.841 -13.231  19.260  0.00  0.00    +0.186 C 
BRANCH  16  17
ATOM     17  C   PHE A   1     -27.630 -13.862  19.894  0.00  0.00    +0.326 C 
ATOM     18  O   PHE A   1     -26.489 -13.346  19.744  0.00  0.00    -0.249 OA
BRANCH  17  19
ATOM     19  OXT PHE A   1     -27.773 -15.012  20.664  0.00  0.00    -0.479 OA
ATOM     20  HXT PHE A   1     -28.278 -15.816  20.308  0.00  0.00    +0.295 HD
ENDBRANCH  17  19
ENDBRANCH  16  17
BRANCH  16  21
ATOM     21  CB  PHE A   1     -28.861 -11.709  19.494  0.00  0.00    +0.069 C 
BRANCH  21  22
ATOM     22  CG  PHE A   1     -29.889 -11.025  18.628  0.00  0.00    -0.045 A 
ATOM     23  CD1 PHE A   1     -31.255 -11.108  18.944  0.00  0.00    +0.004 A 
ATOM     24  CE1 PHE A   1     -32.206 -10.498  18.120  0.00  0.00    +0.000 A 
ATOM     25  CZ  PHE A   1     -31.802  -9.806  16.975  0.00  0.00    +0.000 A 
ATOM     26  CE2 PHE A   1     -30.445  -9.726  16.650  0.00  0.00    +0.000 A 
ATOM     27  CD2 PHE A   1     -29.491 -10.335  17.470  0.00  0.00    +0.004 A 
ENDBRANCH  21  22
ENDBRANCH  16  21
ENDBRANCH   3  16
TORSDOF 7
ENDMDL
MODEL 2
REMARK VINA RESULT:    -5.295      2.581      4.467
REMARK INTER + INTRA:          -8.693
REMARK INTER:                  -7.162
REMARK INTRA:                  -1.531
REMARK UNBOUND:                -1.385
REMARK  Name = 
REMARK  7 active torsions:
REMARK  status: ('A' for Active; 'I' for Inactive)
REMARK    1  A    between atoms: C_2  and  C_4
REMARK    2  A    between atoms: C_8  and  C_10
REMARK    3  A    between atoms: N_12  and  CA_13
REMARK    4  A    between atoms: CA_13  and  CB_14
REMARK    5  A    between atoms: CA_13  and  C_21
REMARK    6  A    between atoms: CB_14  and  CG_15
REMARK    7  A    between atoms: C_21  and  OXT_23
REMARK                            x       y       z     vdW  Elec       q    Type
REMARK                         _______ _______ _______ _____ _____    ______ ____
ROOT
ATOM      1  C   UNK A   0     -31.105  -9.995  16.553  0.00  0.00    +0.245 C 
ATOM      2  O   UNK A   0     -30.180  -9.212  16.200  0.00  0.00    -0.270 OA
ATOM      3  N   PHE A   1     -31.037 -10.641  17.837  0.00  0.00    -0.298 N 
ATOM      4  H   PHE A   1     -31.894 -11.109  18.210  0.00  0.00    +0.150 HD
ENDROOT
BRANCH   1   9
ATOM      5  C   UNK A   0     -33.313 -11.517  13.857  0.00  0.00    +0.037 A 
ATOM      6  C   UNK A   0     -34.425 -10.659  13.913  0.00  0.00    +0.013 A 
ATOM      7  C   UNK A   0     -34.462  -9.609  14.831  0.00  0.00    +0.001 A 
ATOM      8  C   UNK A   0     -33.389  -9.390  15.696  0.00  0.00    +0.013 A 
ATOM      9  C   UNK A   0     -32.255 -10.218  15.643  0.00  0.00    +0.037 A 
ATOM     10  C   UNK A   0     -32.229 -11.284  14.725  0.00  0.00    +0.026 A 
BRANCH   5  12
ATOM     11  N   UNK A   0     -34.354 -12.831  11.944  0.00  0.00    -0.325 N 
ATOM     12  C   UNK A   0     -33.288 -12.631  12.877  0.00  0.00    +0.242 C 
ATOM     13  O   UNK A   0     -32.301 -13.415  12.851  0.00  0.00    -0.270 OA
ATOM     14  H   UNK A   0     -35.111 -12.125  11.814  0.00  0.00    +0.145 HD
ATOM     15  H   UNK A   0     -34.337 -13.658  11.307  0.00  0.00    +0.145 HD
ENDBRANCH   5  12
ENDBRANCH   1   9
BRANCH   3  16
ATOM     16  CA  PHE A   1     -29.820 -10.615  18.657  0.00  0.00    +0.186 C 
BRANCH  16  17
ATOM     17  C   PHE A   1     -30.069  -9.852  19.931  0.00  0.00    +0.326 C 
ATOM     18  O   PHE A   1     -30.491 -10.448  20.960  0.00  0.00    -0.249 OA
BRANCH  17  19
ATOM     19  OXT PHE A   1     -29.815  -8.485  19.979  0.00  0.00    -0.479 OA
ATOM     20  HXT PHE A   1     -30.119  -7.928  20.769  0.00  0.00    +0.295 HD
ENDBRANCH  17  19
ENDBRANCH  16  17
BRANCH  16  21
ATOM     21  CB  PHE A   1     -29.354 -12.053  18.952  0.00  0.00    +0.069 C 
BRANCH  21  22
ATOM     22  CG  PHE A   1     -29.815 -13.018  17.889  0.00  0.00    -0.045 A 
ATOM     23  CD1 PHE A   1     -29.005 -13.288  16.773  0.00  0.00    +0.004 A 
ATOM     24  CE1 PHE A   1     -29.452 -14.160  15.775  0.00  0.00    +0.000 A 
ATOM     25  CZ  PHE A   1     -30.708 -14.763  15.881  0.00  0.00    +0.000 A 
ATOM     26  CE2 PHE A   1     -31.522 -14.493  16.984  0.00  0.00    +0.000 A 
ATOM     27  CD2 PHE A   1     -31.080 -13.622  17.984  0.00  0.00    +0.004 A 
ENDBRANCH  21  22
ENDBRANCH  16  21
ENDBRANCH   3  16
TORSDOF 7
ENDMDL
MODEL 3
REMARK VINA RESULT:    -4.766      1.343      1.871
REMARK INTER + INTRA:          -7.962
REMARK INTER:                  -6.412
REMARK INTRA:                  -1.550
REMARK UNBOUND:                -1.385
REMARK  Name = 
REMARK  7 active torsions:
REMARK  status: ('A' for Active; 'I' for Inactive)
REMARK    1  A    between atoms: C_2  and  C_4
REMARK    2  A    between atoms: C_8  and  C_10
REMARK    3  A    between atoms: N_12  and  CA_13
REMARK    4  A    between atoms: CA_13  and  CB_14
REMARK    5  A    between atoms: CA_13  and  C_21
REMARK    6  A    between atoms: CB_14  and  CG_15
REMARK    7  A    between atoms: C_21  and  OXT_23
REMARK                            x       y       z     vdW  Elec       q    Type
REMARK                         _______ _______ _______ _____ _____    ______ ____
ROOT
ATOM      1  C   UNK A   0     -30.149 -13.547  16.599  0.00  0.00    +0.245 C 
ATOM      2  O   UNK A   0     -30.348 -14.549  17.340  0.00  0.00    -0.270 OA
ATOM      3  N   PHE A   1     -29.440 -12.408  17.119  0.00  0.00    -0.298 N 
ATOM      4  H   PHE A   1     -29.093 -11.684  16.451  0.00  0.00    +0.150 HD
ENDROOT
BRANCH   1   9
ATOM      5  C   UNK A   0     -32.256 -12.845  13.512  0.00  0.00    +0.037 A 
ATOM      6  C   UNK A   0     -31.570 -13.603  12.548  0.00  0.00    +0.013 A 
ATOM      7  C   UNK A   0     -30.424 -14.319  12.895  0.00  0.00    +0.001 A 
ATOM      8  C   UNK A   0     -29.954 -14.301  14.209  0.00  0.00    +0.013 A 
ATOM      9  C   UNK A   0     -30.635 -13.571  15.198  0.00  0.00    +0.037 A 
ATOM     10  C   UNK A   0     -31.783 -12.840  14.838  0.00  0.00    +0.026 A 
BRANCH   5  12
ATOM     11  N   UNK A   0     -34.180 -11.279  14.073  0.00  0.00    -0.325 N 
ATOM     12  C   UNK A   0     -33.472 -12.086  13.127  0.00  0.00    +0.242 C 
ATOM     13  O   UNK A   0     -33.888 -12.136  11.938  0.00  0.00    -0.270 OA
ATOM     14  H   UNK A   0     -33.793 -11.073  15.019  0.00  0.00    +0.145 HD
ATOM     15  H   UNK A   0     -35.066 -10.804  13.790  0.00  0.00    +0.145 HD
ENDBRANCH   5  12
ENDBRANCH   1   9
BRANCH   3  16
ATOM     16  CA  PHE A   1     -29.144 -12.264  18.549  0.00  0.00    +0.186 C 
BRANCH  16  17
ATOM     17  C   PHE A   1     -27.664 -12.404  18.790  0.00  0.00    +0.326 C 
ATOM     18  O   PHE A   1     -26.905 -11.401  18.698  0.00  0.00    -0.249 OA
BRANCH  17  19
ATOM     19  OXT PHE A   1     -27.134 -13.643  19.133  0.00  0.00    -0.479 OA
ATOM     20  HXT PHE A   1     -27.602 -14.240  19.806  0.00  0.00    +0.295 HD
ENDBRANCH  17  19
ENDBRANCH  16  17
BRANCH  16  21
ATOM     21  CB  PHE A   1     -29.664 -10.908  19.060  0.00  0.00    +0.069 C 
BRANCH  21  22
ATOM     22  CG  PHE A   1     -30.991 -10.549  18.438  0.00  0.00    -0.045 A 
ATOM     23  CD1 PHE A   1     -31.051  -9.664  17.349  0.00  0.00    +0.004 A 
ATOM     24  CE1 PHE A   1     -32.287  -9.313  16.796  0.00  0.00    +0.000 A 
ATOM     25  CZ  PHE A   1     -33.468  -9.836  17.329  0.00  0.00    +0.000 A 
ATOM     26  CE2 PHE A   1     -33.416 -10.711  18.417  0.00  0.00    +0.000 A 
ATOM     27  CD2 PHE A   1     -32.184 -11.065  18.973  0.00  0.00    +0.004 A 
ENDBRANCH  21  22
ENDBRANCH  16  21
ENDBRANCH   3  16
TORSDOF 7
ENDMDL
MODEL 4
REMARK VINA RESULT:    -4.598      3.110      5.735
REMARK INTER + INTRA:          -7.731
REMARK INTER:                  -6.766
REMARK INTRA:                  -0.965
REMARK UNBOUND:                -1.385
REMARK  Name = 
REMARK  7 active torsions:
REMARK  status: ('A' for Active; 'I' for Inactive)
REMARK    1  A    between atoms: C_2  and  C_4
REMARK    2  A    between atoms: C_8  and  C_10
REMARK    3  A    between atoms: N_12  and  CA_13
REMARK    4  A    between atoms: CA_13  and  CB_14
REMARK    5  A    between atoms: CA_13  and  C_21
REMARK    6  A    between atoms: CB_14  and  CG_15
REMARK    7  A    between atoms: C_21  and  OXT_23
REMARK                            x       y       z     vdW  Elec       q    Type
REMARK                         _______ _______ _______ _____ _____    ______ ____
ROOT
ATOM      1  C   UNK A   0     -31.178 -10.890  16.897  0.00  0.00    +0.245 C 
ATOM      2  O   UNK A   0     -30.023 -10.401  16.768  0.00  0.00    -0.270 OA
ATOM      3  N   PHE A   1     -31.329 -12.235  17.386  0.00  0.00    -0.298 N 
ATOM      4  H   PHE A   1     -32.275 -12.555  17.694  0.00  0.00    +0.150 HD
ENDROOT
BRANCH   1   9
ATOM      5  C   UNK A   0     -34.019  -8.383  17.216  0.00  0.00    +0.037 A 
ATOM      6  C   UNK A   0     -34.599  -8.478  15.940  0.00  0.00    +0.013 A 
ATOM      7  C   UNK A   0     -34.059  -9.336  14.981  0.00  0.00    +0.001 A 
ATOM      8  C   UNK A   0     -32.944 -10.118  15.283  0.00  0.00    +0.013 A 
ATOM      9  C   UNK A   0     -32.361 -10.061  16.560  0.00  0.00    +0.037 A 
ATOM     10  C   UNK A   0     -32.902  -9.184  17.519  0.00  0.00    +0.026 A 
BRANCH   5  12
ATOM     11  N   UNK A   0     -35.062  -7.943  19.494  0.00  0.00    -0.325 N 
ATOM     12  C   UNK A   0     -34.603  -7.465  18.226  0.00  0.00    +0.242 C 
ATOM     13  O   UNK A   0     -34.684  -6.232  17.974  0.00  0.00    -0.270 OA
ATOM     14  H   UNK A   0     -34.873  -8.916  19.816  0.00  0.00    +0.145 HD
ATOM     15  H   UNK A   0     -35.522  -7.284  20.161  0.00  0.00    +0.145 HD
ENDBRANCH   5  12
ENDBRANCH   1   9
BRANCH   3  16
ATOM     16  CA  PHE A   1     -30.187 -13.148  17.516  0.00  0.00    +0.186 C 
BRANCH  16  17
ATOM     17  C   PHE A   1     -29.873 -13.383  18.970  0.00  0.00    +0.326 C 
ATOM     18  O   PHE A   1     -28.777 -12.994  19.457  0.00  0.00    -0.249 OA
BRANCH  17  19
ATOM     19  OXT PHE A   1     -30.807 -14.016  19.785  0.00  0.00    -0.479 OA
ATOM     20  HXT PHE A   1     -30.552 -14.342  20.710  0.00  0.00    +0.295 HD
ENDBRANCH  17  19
ENDBRANCH  16  17
BRANCH  16  21
ATOM     21  CB  PHE A   1     -30.488 -14.473  16.791  0.00  0.00    +0.069 C 
BRANCH  21  22
ATOM     22  CG  PHE A   1     -30.120 -14.404  15.330  0.00  0.00    -0.045 A 
ATOM     23  CD1 PHE A   1     -31.065 -13.992  14.376  0.00  0.00    +0.004 A 
ATOM     24  CE1 PHE A   1     -30.727 -13.960  13.020  0.00  0.00    +0.000 A 
ATOM     25  CZ  PHE A   1     -29.449 -14.344  12.606  0.00  0.00    +0.000 A 
ATOM     26  CE2 PHE A   1     -28.506 -14.763  13.548  0.00  0.00    +0.000 A 
ATOM     27  CD2 PHE A   1     -28.839 -14.797  14.905  0.00  0.00    +0.004 A 
ENDBRANCH  21  22
ENDBRANCH  16  21
ENDBRANCH   3  16
TORSDOF 7
ENDMDL
MODEL 5
REMARK VINA RESULT:    -4.592      3.208      4.894
REMARK INTER + INTRA:          -7.722
REMARK INTER:                  -6.842
REMARK INTRA:                  -0.880
REMARK UNBOUND:                -1.385
REMARK  Name = 
REMARK  7 active torsions:
REMARK  status: ('A' for Active; 'I' for Inactive)
REMARK    1  A    between atoms: C_2  and  C_4
REMARK    2  A    between atoms: C_8  and  C_10
REMARK    3  A    between atoms: N_12  and  CA_13
REMARK    4  A    between atoms: CA_13  and  CB_14
REMARK    5  A    between atoms: CA_13  and  C_21
REMARK    6  A    between atoms: CB_14  and  CG_15
REMARK    7  A    between atoms: C_21  and  OXT_23
REMARK                            x       y       z     vdW  Elec       q    Type
REMARK                         _______ _______ _______ _____ _____    ______ ____
ROOT
ATOM      1  C   UNK A   0     -31.273  -9.844  16.708  0.00  0.00    +0.245 C 
ATOM      2  O   UNK A   0     -30.109  -9.507  16.359  0.00  0.00    -0.270 OA
ATOM      3  N   PHE A   1     -31.649  -9.770  18.094  0.00  0.00    -0.298 N 
ATOM      4  H   PHE A   1     -32.662  -9.840  18.346  0.00  0.00    +0.150 HD
ENDROOT
BRANCH   1   9
ATOM      5  C   UNK A   0     -32.817 -11.810  13.842  0.00  0.00    +0.037 A 
ATOM      6  C   UNK A   0     -34.056 -11.160  13.715  0.00  0.00    +0.013 A 
ATOM      7  C   UNK A   0     -34.393 -10.107  14.566  0.00  0.00    +0.001 A 
ATOM      8  C   UNK A   0     -33.495  -9.678  15.544  0.00  0.00    +0.013 A 
ATOM      9  C   UNK A   0     -32.239 -10.293  15.675  0.00  0.00    +0.037 A 
ATOM     10  C   UNK A   0     -31.911 -11.364  14.823  0.00  0.00    +0.026 A 
BRANCH   5  12
ATOM     11  N   UNK A   0     -33.420 -13.449  11.993  0.00  0.00    -0.325 N 
ATOM     12  C   UNK A   0     -32.473 -12.931  12.931  0.00  0.00    +0.242 C 
ATOM     13  O   UNK A   0     -31.316 -13.432  12.970  0.00  0.00    -0.270 OA
ATOM     14  H   UNK A   0     -34.328 -12.971  11.807  0.00  0.00    +0.145 HD
ATOM     15  H   UNK A   0     -33.170 -14.276  11.406  0.00  0.00    +0.145 HD
ENDBRANCH   5  12
ENDBRANCH   1   9
BRANCH   3  16
ATOM     16  CA  PHE A   1     -30.662  -9.544  19.156  0.00  0.00    +0.186 C 
BRANCH  16  17
ATOM     17  C   PHE A   1     -30.905  -8.212  19.817  0.00  0.00    +0.326 C 
ATOM     18  O   PHE A   1     -32.028  -7.646  19.718  0.00  0.00    -0.249 OA
BRANCH  17  19
ATOM     19  OXT PHE A   1     -29.890  -7.612  20.554  0.00  0.00    -0.479 OA
ATOM     20  HXT PHE A   1     -30.105  -6.995  21.329  0.00  0.00    +0.295 HD
ENDBRANCH  17  19
ENDBRANCH  16  17
BRANCH  16  21
ATOM     21  CB  PHE A   1     -30.722 -10.691  20.182  0.00  0.00    +0.069 C 
BRANCH  21  22
ATOM     22  CG  PHE A   1     -29.492 -11.563  20.116  0.00  0.00    -0.045 A 
ATOM     23  CD1 PHE A   1     -28.554 -11.393  19.084  0.00  0.00    +0.004 A 
ATOM     24  CE1 PHE A   1     -27.431 -12.224  19.010  0.00  0.00    +0.000 A 
ATOM     25  CZ  PHE A   1     -27.241 -13.231  19.960  0.00  0.00    +0.000 A 
ATOM     26  CE2 PHE A   1     -28.174 -13.411  20.985  0.00  0.00    +0.000 A 
ATOM     27  CD2 PHE A   1     -29.298 -12.583  21.062  0.00  0.00    +0.004 A 
ENDBRANCH  21  22
ENDBRANCH  16  21
ENDBRANCH   3  16
TORSDOF 7
ENDMDL
MODEL 6
REMARK VINA RESULT:    -4.574      2.808      4.593
REMARK INTER + INTRA:          -7.697
REMARK INTER:                  -6.136
REMARK INTRA:                  -1.561
REMARK UNBOUND:                -1.385
REMARK  Name = 
REMARK  7 active torsions:
REMARK  status: ('A' for Active; 'I' for Inactive)
REMARK    1  A    between atoms: C_2  and  C_4
REMARK    2  A    between atoms: C_8  and  C_10
REMARK    3  A    between atoms: N_12  and  CA_13
REMARK    4  A    between atoms: CA_13  and  CB_14
REMARK    5  A    between atoms: CA_13  and  C_21
REMARK    6  A    between atoms: CB_14  and  CG_15
REMARK    7  A    between atoms: C_21  and  OXT_23
REMARK                            x       y       z     vdW  Elec       q    Type
REMARK                         _______ _______ _______ _____ _____    ______ ____
ROOT
ATOM      1  C   UNK A   0     -32.266 -10.635  16.133  0.00  0.00    +0.245 C 
ATOM      2  O   UNK A   0     -32.796  -9.574  15.702  0.00  0.00    -0.270 OA
ATOM      3  N   PHE A   1     -32.111 -10.826  17.551  0.00  0.00    -0.298 N 
ATOM      4  H   PHE A   1     -31.877 -11.780  17.907  0.00  0.00    +0.150 HD
ENDROOT
BRANCH   1   9
ATOM      5  C   UNK A   0     -30.381 -13.569  14.616  0.00  0.00    +0.037 A 
ATOM      6  C   UNK A   0     -30.996 -13.652  13.355  0.00  0.00    +0.013 A 
ATOM      7  C   UNK A   0     -32.025 -12.775  13.011  0.00  0.00    +0.001 A 
ATOM      8  C   UNK A   0     -32.447 -11.796  13.911  0.00  0.00    +0.013 A 
ATOM      9  C   UNK A   0     -31.831 -11.674  15.169  0.00  0.00    +0.037 A 
ATOM     10  C   UNK A   0     -30.803 -12.571  15.515  0.00  0.00    +0.026 A 
BRANCH   5  12
ATOM     11  N   UNK A   0     -29.175 -15.062  16.285  0.00  0.00    -0.325 N 
ATOM     12  C   UNK A   0     -29.289 -14.510  14.970  0.00  0.00    +0.242 C 
ATOM     13  O   UNK A   0     -28.449 -14.847  14.092  0.00  0.00    -0.270 OA
ATOM     14  H   UNK A   0     -29.927 -14.946  16.997  0.00  0.00    +0.145 HD
ATOM     15  H   UNK A   0     -28.363 -15.675  16.521  0.00  0.00    +0.145 HD
ENDBRANCH   5  12
ENDBRANCH   1   9
BRANCH   3  16
ATOM     16  CA  PHE A   1     -32.325  -9.736  18.510  0.00  0.00    +0.186 C 
BRANCH  16  17
ATOM     17  C   PHE A   1     -33.595  -9.968  19.285  0.00  0.00    +0.326 C 
ATOM     18  O   PHE A   1     -33.582 -10.665  20.337  0.00  0.00    -0.249 OA
BRANCH  17  19
ATOM     19  OXT PHE A   1     -34.786  -9.396  18.848  0.00  0.00    -0.479 OA
ATOM     20  HXT PHE A   1     -35.670  -9.874  18.979  0.00  0.00    +0.295 HD
ENDBRANCH  17  19
ENDBRANCH  16  17
BRANCH  16  21
ATOM     21  CB  PHE A   1     -31.112  -9.619  19.452  0.00  0.00    +0.069 C 
BRANCH  21  22
ATOM     22  CG  PHE A   1     -30.125 -10.738  19.232  0.00  0.00    -0.045 A 
ATOM     23  CD1 PHE A   1     -30.297 -11.976  19.873  0.00  0.00    +0.004 A 
ATOM     24  CE1 PHE A   1     -29.361 -12.999  19.688  0.00  0.00    +0.000 A 
ATOM     25  CZ  PHE A   1     -28.248 -12.792  18.869  0.00  0.00    +0.000 A 
ATOM     26  CE2 PHE A   1     -28.066 -11.560  18.235  0.00  0.00    +0.000 A 
ATOM     27  CD2 PHE A   1     -28.998 -10.534  18.417  0.00  0.00    +0.004 A 
ENDBRANCH  21  22
ENDBRANCH  16  21
ENDBRANCH   3  16
TORSDOF 7
ENDMDL
MODEL 7
REMARK VINA RESULT:    -4.508      2.992      5.163
REMARK INTER + INTRA:          -7.606
REMARK INTER:                  -6.175
REMARK INTRA:                  -1.431
REMARK UNBOUND:                -1.385
REMARK  Name = 
REMARK  7 active torsions:
REMARK  status: ('A' for Active; 'I' for Inactive)
REMARK    1  A    between atoms: C_2  and  C_4
REMARK    2  A    between atoms: C_8  and  C_10
REMARK    3  A    between atoms: N_12  and  CA_13
REMARK    4  A    between atoms: CA_13  and  CB_14
REMARK    5  A    between atoms: CA_13  and  C_21
REMARK    6  A    between atoms: CB_14  and  CG_15
REMARK    7  A    between atoms: C_21  and  OXT_23
REMARK                            x       y       z     vdW  Elec       q    Type
REMARK                         _______ _______ _______ _____ _____    ______ ____
ROOT
ATOM      1  C   UNK A   0     -31.950 -13.303  13.156  0.00  0.00    +0.245 C 
ATOM      2  O   UNK A   0     -32.130 -14.131  12.221  0.00  0.00    -0.270 OA
ATOM      3  N   PHE A   1     -30.800 -13.434  14.009  0.00  0.00    -0.298 N 
ATOM      4  H   PHE A   1     -30.541 -12.635  14.632  0.00  0.00    +0.150 HD
ENDROOT
BRANCH   1   9
ATOM      5  C   UNK A   0     -33.696 -10.263  14.629  0.00  0.00    +0.037 A 
ATOM      6  C   UNK A   0     -34.748 -10.094  13.713  0.00  0.00    +0.013 A 
ATOM      7  C   UNK A   0     -34.875 -10.949  12.618  0.00  0.00    +0.001 A 
ATOM      8  C   UNK A   0     -33.966 -11.990  12.427  0.00  0.00    +0.013 A 
ATOM      9  C   UNK A   0     -32.921 -12.197  13.343  0.00  0.00    +0.037 A 
ATOM     10  C   UNK A   0     -32.789 -11.323  14.438  0.00  0.00    +0.026 A 
BRANCH   5  12
ATOM     11  N   UNK A   0     -33.948  -7.968  15.697  0.00  0.00    -0.325 N 
ATOM     12  C   UNK A   0     -33.571  -9.345  15.789  0.00  0.00    +0.242 C 
ATOM     13  O   UNK A   0     -33.138  -9.785  16.888  0.00  0.00    -0.270 OA
ATOM     14  H   UNK A   0     -34.458  -7.592  14.869  0.00  0.00    +0.145 HD
ATOM     15  H   UNK A   0     -33.793  -7.332  16.510  0.00  0.00    +0.145 HD
ENDBRANCH   5  12
ENDBRANCH   1   9
BRANCH   3  16
ATOM     16  CA  PHE A   1     -29.950 -14.631  13.990  0.00  0.00    +0.186 C 
BRANCH  16  17
ATOM     17  C   PHE A   1     -28.696 -14.365  13.200  0.00  0.00    +0.326 C 
ATOM     18  O   PHE A   1     -27.568 -14.679  13.668  0.00  0.00    -0.249 OA
BRANCH  17  19
ATOM     19  OXT PHE A   1     -28.785 -13.786  11.938  0.00  0.00    -0.479 OA
ATOM     20  HXT PHE A   1     -28.071 -13.954  11.238  0.00  0.00    +0.295 HD
ENDBRANCH  17  19
ENDBRANCH  16  17
BRANCH  16  21
ATOM     21  CB  PHE A   1     -29.617 -15.062  15.431  0.00  0.00    +0.069 C 
BRANCH  21  22
ATOM     22  CG  PHE A   1     -30.199 -14.110  16.446  0.00  0.00    -0.045 A 
ATOM     23  CD1 PHE A   1     -31.540 -14.228  16.847  0.00  0.00    +0.004 A 
ATOM     24  CE1 PHE A   1     -32.081 -13.323  17.766  0.00  0.00    +0.000 A 
ATOM     25  CZ  PHE A   1     -31.291 -12.295  18.286  0.00  0.00    +0.000 A 
ATOM     26  CE2 PHE A   1     -29.958 -12.167  17.886  0.00  0.00    +0.000 A 
ATOM     27  CD2 PHE A   1     -29.413 -13.068  16.967  0.00  0.00    +0.004 A 
ENDBRANCH  21  22
ENDBRANCH  16  21
ENDBRANCH   3  16
TORSDOF 7
ENDMDL
MODEL 8
REMARK VINA RESULT:    -4.423      2.925      5.764
REMARK INTER + INTRA:          -7.490
REMARK INTER:                  -6.605
REMARK INTRA:                  -0.885
REMARK UNBOUND:                -1.385
REMARK  Name = 
REMARK  7 active torsions:
REMARK  status: ('A' for Active; 'I' for Inactive)
REMARK    1  A    between atoms: C_2  and  C_4
REMARK    2  A    between atoms: C_8  and  C_10
REMARK    3  A    between atoms: N_12  and  CA_13
REMARK    4  A    between atoms: CA_13  and  CB_14
REMARK    5  A    between atoms: CA_13  and  C_21
REMARK    6  A    between atoms: CB_14  and  CG_15
REMARK    7  A    between atoms: C_21  and  OXT_23
REMARK                            x       y       z     vdW  Elec       q    Type
REMARK                         _______ _______ _______ _____ _____    ______ ____
ROOT
ATOM      1  C   UNK A   0     -29.854 -10.444  18.300  0.00  0.00    +0.245 C 
ATOM      2  O   UNK A   0     -28.947 -10.099  17.494  0.00  0.00    -0.270 OA
ATOM      3  N   PHE A   1     -29.929 -11.812  18.742  0.00  0.00    -0.298 N 
ATOM      4  H   PHE A   1     -30.534 -12.043  19.562  0.00  0.00    +0.150 HD
ENDROOT
BRANCH   1   9
ATOM      5  C   UNK A   0     -32.930  -8.220  18.533  0.00  0.00    +0.037 A 
ATOM      6  C   UNK A   0     -32.648  -7.505  19.710  0.00  0.00    +0.013 A 
ATOM      7  C   UNK A   0     -31.480  -7.759  20.429  0.00  0.00    +0.001 A 
ATOM      8  C   UNK A   0     -30.570  -8.717  19.980  0.00  0.00    +0.013 A 
ATOM      9  C   UNK A   0     -30.815  -9.427  18.792  0.00  0.00    +0.037 A 
ATOM     10  C   UNK A   0     -32.002  -9.177  18.079  0.00  0.00    +0.026 A 
BRANCH   5  12
ATOM     11  N   UNK A   0     -34.397  -6.683  17.135  0.00  0.00    -0.325 N 
ATOM     12  C   UNK A   0     -34.178  -7.941  17.780  0.00  0.00    +0.242 C 
ATOM     13  O   UNK A   0     -35.062  -8.835  17.688  0.00  0.00    -0.270 OA
ATOM     14  H   UNK A   0     -33.639  -5.973  17.042  0.00  0.00    +0.145 HD
ATOM     15  H   UNK A   0     -35.309  -6.494  16.663  0.00  0.00    +0.145 HD
ENDBRANCH   5  12
ENDBRANCH   1   9
BRANCH   3  16
ATOM     16  CA  PHE A   1     -29.141 -12.876  18.111  0.00  0.00    +0.186 C 
BRANCH  16  17
ATOM     17  C   PHE A   1     -28.094 -13.384  19.067  0.00  0.00    +0.326 C 
ATOM     18  O   PHE A   1     -26.948 -12.860  19.096  0.00  0.00    -0.249 OA
BRANCH  17  19
ATOM     19  OXT PHE A   1     -28.400 -14.427  19.936  0.00  0.00    -0.479 OA
ATOM     20  HXT PHE A   1     -27.693 -14.818  20.548  0.00  0.00    +0.295 HD
ENDBRANCH  17  19
ENDBRANCH  16  17
BRANCH  16  21
ATOM     21  CB  PHE A   1     -30.070 -14.015  17.648  0.00  0.00    +0.069 C 
BRANCH  21  22
ATOM     22  CG  PHE A   1     -30.222 -14.035  16.147  0.00  0.00    -0.045 A 
ATOM     23  CD1 PHE A   1     -29.404 -14.861  15.359  0.00  0.00    +0.004 A 
ATOM     24  CE1 PHE A   1     -29.529 -14.852  13.966  0.00  0.00    +0.000 A 
ATOM     25  CZ  PHE A   1     -30.465 -14.016  13.352  0.00  0.00    +0.000 A 
ATOM     26  CE2 PHE A   1     -31.277 -13.186  14.129  0.00  0.00    +0.000 A 
ATOM     27  CD2 PHE A   1     -31.155 -13.191  15.521  0.00  0.00    +0.004 A 
ENDBRANCH  21  22
ENDBRANCH  16  21
ENDBRANCH   3  16
TORSDOF 7
ENDMDL
