MODEL 1
REMARK VINA RESULT:    -4.967      0.000      0.000
REMARK INTER + INTRA:          -9.468
REMARK INTER:                  -7.289
REMARK INTRA:                  -2.179
REMARK UNBOUND:                -2.179
REMARK  Name = 
REMARK  9 active torsions:
REMARK  status: ('A' for Active; 'I' for Inactive)
REMARK    1  A    between atoms: C_1  and  O_2
REMARK    2  A    between atoms: O_2  and  C_3
REMARK    3  A    between atoms: C_3  and  C_5
REMARK    4  A    between atoms: C_5  and  C_6
REMARK    5  A    between atoms: C_6  and  N_7
REMARK    6  A    between atoms: C_6  and  C_20
REMARK    7  A    between atoms: C_8  and  C_10
REMARK    8  A    between atoms: C_15  and  O_16
REMARK    9  A    between atoms: O_16  and  C_17
REMARK                            x       y       z     vdW  Elec       q    Type
REMARK                         _______ _______ _______ _____ _____    ______ ____
ROOT
ATOM      1  C   UNL     1     -29.839 -10.823  18.623  0.00  0.00    +0.117 C 
ENDROOT
BRANCH   1   2
ATOM      2  C   UNL     1     -28.983 -11.847  19.354  0.00  0.00    +0.009 A 
ATOM      3  C   UNL     1     -29.526 -12.605  20.410  0.00  0.00    +0.011 A 
ATOM      4  C   UNL     1     -28.736 -13.523  21.106  0.00  0.00    +0.039 A 
ATOM      5  C   UNL     1     -27.393 -13.691  20.764  0.00  0.00    +0.126 A 
ATOM      6  F   UNL     1     -26.626 -14.580  21.442  0.00  0.00    -0.205 F 
ATOM      7  C   UNL     1     -26.838 -12.941  19.725  0.00  0.00    +0.077 A 
ATOM      8  C   UNL     1     -27.623 -12.021  19.022  0.00  0.00    +0.131 A 
ATOM      9  F   UNL     1     -27.050 -11.298  18.026  0.00  0.00    -0.205 F 
ENDBRANCH   1   2
BRANCH   1  10
ATOM     10  N   UNL     1     -30.445 -11.424  17.427  0.00  0.00    -0.304 N 
ATOM     11  C   UNL     1     -30.828 -10.642  16.284  0.00  0.00    +0.248 C 
ATOM     12  O   UNL     1     -30.369  -9.476  16.139  0.00  0.00    -0.270 OA
ATOM     13  H   UNL     1     -30.562 -12.461  17.369  0.00  0.00    +0.150 HD
BRANCH  11  14
ATOM     14  C   UNL     1     -31.732 -11.202  15.254  0.00  0.00    +0.078 A 
ATOM     15  C   UNL     1     -32.939 -10.541  14.968  0.00  0.00    +0.017 A 
ATOM     16  C   UNL     1     -33.805 -11.036  13.992  0.00  0.00    +0.001 A 
ATOM     17  C   UNL     1     -33.482 -12.200  13.296  0.00  0.00    +0.004 A 
ATOM     18  C   UNL     1     -32.297 -12.881  13.582  0.00  0.00    +0.046 A 
ATOM     19  C   UNL     1     -31.415 -12.398  14.570  0.00  0.00    +0.139 A 
BRANCH  19  20
ATOM     20  O   UNL     1     -30.241 -13.092  14.912  0.00  0.00    -0.433 OA
BRANCH  20  21
ATOM     21  C   UNL     1     -30.193 -14.306  15.657  0.00  0.00    +0.541 C 
ATOM     22  F   UNL     1     -31.405 -14.490  16.295  0.00  0.00    -0.166 F 
ATOM     23  F   UNL     1     -29.192 -14.236  16.609  0.00  0.00    -0.166 F 
ENDBRANCH  20  21
ENDBRANCH  19  20
ENDBRANCH  11  14
ENDBRANCH   1  10
BRANCH   1  24
ATOM     24  C   UNL     1     -30.939 -10.258  19.546  0.00  0.00    +0.147 C 
BRANCH  24  25
ATOM     25  C   UNL     1     -31.017  -8.765  19.450  0.00  0.00    +0.309 C 
ATOM     26  O   UNL     1     -31.836  -8.230  18.654  0.00  0.00    -0.251 OA
BRANCH  25  28
ATOM     27  C   UNL     1     -30.582  -6.897  21.013  0.00  0.00    +0.280 C 
ATOM     28  O   UNL     1     -30.140  -7.981  20.206  0.00  0.00    -0.468 OA
ENDBRANCH  25  28
ENDBRANCH  24  25
ENDBRANCH   1  24
TORSDOF 8
ENDMDL
MODEL 2
REMARK VINA RESULT:    -4.891      1.799      2.080
REMARK INTER + INTRA:          -9.358
REMARK INTER:                  -6.592
REMARK INTRA:                  -2.765
REMARK UNBOUND:                -2.179
REMARK  Name = 
REMARK  9 active torsions:
REMARK  status: ('A' for Active; 'I' for Inactive)
REMARK    1  A    between atoms: C_1  and  O_2
REMARK    2  A    between atoms: O_2  and  C_3
REMARK    3  A    between atoms: C_3  and  C_5
REMARK    4  A    between atoms: C_5  and  C_6
REMARK    5  A    between atoms: C_6  and  N_7
REMARK    6  A    between atoms: C_6  and  C_20
REMARK    7  A    between atoms: C_8  and  C_10
REMARK    8  A    between atoms: C_15  and  O_16
REMARK    9  A    between atoms: O_16  and  C_17
REMARK                            x       y       z     vdW  Elec       q    Type
REMARK                         _______ _______ _______ _____ _____    ______ ____
ROOT
ATOM      1  C   UNL     1     -29.726 -11.707  19.834  0.00  0.00    +0.117 C 
ENDROOT
BRANCH   1   2
ATOM      2  C   UNL     1     -28.578 -12.620  20.242  0.00  0.00    +0.009 A 
ATOM      3  C   UNL     1     -28.743 -13.544  21.293  0.00  0.00    +0.011 A 
ATOM      4  C   UNL     1     -27.683 -14.362  21.692  0.00  0.00    +0.039 A 
ATOM      5  C   UNL     1     -26.445 -14.265  21.055  0.00  0.00    +0.126 A 
ATOM      6  F   UNL     1     -25.417 -15.058  21.446  0.00  0.00    -0.205 F 
ATOM      7  C   UNL     1     -26.264 -13.349  20.017  0.00  0.00    +0.077 A 
ATOM      8  C   UNL     1     -27.321 -12.526  19.609  0.00  0.00    +0.131 A 
ATOM      9  F   UNL     1     -27.109 -11.637  18.606  0.00  0.00    -0.205 F 
ENDBRANCH   1   2
BRANCH   1  10
ATOM     10  N   UNL     1     -30.250 -12.099  18.520  0.00  0.00    -0.304 N 
ATOM     11  C   UNL     1     -30.270 -11.199  17.400  0.00  0.00    +0.248 C 
ATOM     12  O   UNL     1     -29.553 -10.160  17.418  0.00  0.00    -0.270 OA
ATOM     13  H   UNL     1     -30.576 -13.080  18.362  0.00  0.00    +0.150 HD
BRANCH  11  14
ATOM     14  C   UNL     1     -31.098 -11.492  16.209  0.00  0.00    +0.078 A 
ATOM     15  C   UNL     1     -31.845 -10.456  15.621  0.00  0.00    +0.017 A 
ATOM     16  C   UNL     1     -32.624 -10.697  14.489  0.00  0.00    +0.001 A 
ATOM     17  C   UNL     1     -32.674 -11.976  13.935  0.00  0.00    +0.004 A 
ATOM     18  C   UNL     1     -31.955 -13.021  14.518  0.00  0.00    +0.046 A 
ATOM     19  C   UNL     1     -31.169 -12.796  15.666  0.00  0.00    +0.139 A 
BRANCH  19  20
ATOM     20  O   UNL     1     -30.477 -13.840  16.302  0.00  0.00    -0.433 OA
BRANCH  20  21
ATOM     21  C   UNL     1     -29.224 -14.371  15.879  0.00  0.00    +0.541 C 
ATOM     22  F   UNL     1     -28.216 -13.802  16.634  0.00  0.00    -0.166 F 
ATOM     23  F   UNL     1     -29.010 -14.070  14.546  0.00  0.00    -0.166 F 
ENDBRANCH  20  21
ENDBRANCH  19  20
ENDBRANCH  11  14
ENDBRANCH   1  10
BRANCH   1  24
ATOM     24  C   UNL     1     -30.857 -11.734  20.884  0.00  0.00    +0.147 C 
BRANCH  24  25
ATOM     25  C   UNL     1     -32.205 -11.647  20.236  0.00  0.00    +0.309 C 
ATOM     26  O   UNL     1     -32.663 -12.640  19.606  0.00  0.00    -0.251 OA
BRANCH  25  28
ATOM     27  C   UNL     1     -33.586  -9.899  19.161  0.00  0.00    +0.280 C 
ATOM     28  O   UNL     1     -32.917 -10.445  20.291  0.00  0.00    -0.468 OA
ENDBRANCH  25  28
ENDBRANCH  24  25
ENDBRANCH   1  24
TORSDOF 8
ENDMDL
MODEL 3
REMARK VINA RESULT:    -4.803      3.002      4.849
REMARK INTER + INTRA:          -9.229
REMARK INTER:                  -6.777
REMARK INTRA:                  -2.452
REMARK UNBOUND:                -2.179
REMARK  Name = 
REMARK  9 active torsions:
REMARK  status: ('A' for Active; 'I' for Inactive)
REMARK    1  A    between atoms: C_1  and  O_2
REMARK    2  A    between atoms: O_2  and  C_3
REMARK    3  A    between atoms: C_3  and  C_5
REMARK    4  A    between atoms: C_5  and  C_6
REMARK    5  A    between atoms: C_6  and  N_7
REMARK    6  A    between atoms: C_6  and  C_20
REMARK    7  A    between atoms: C_8  and  C_10
REMARK    8  A    between atoms: C_15  and  O_16
REMARK    9  A    between atoms: O_16  and  C_17
REMARK                            x       y       z     vdW  Elec       q    Type
REMARK                         _______ _______ _______ _____ _____    ______ ____
ROOT
ATOM      1  C   UNL     1     -29.415 -12.094  19.149  0.00  0.00    +0.117 C 
ENDROOT
BRANCH   1   2
ATOM      2  C   UNL     1     -29.941 -10.875  19.892  0.00  0.00    +0.009 A 
ATOM      3  C   UNL     1     -30.343  -9.727  19.181  0.00  0.00    +0.011 A 
ATOM      4  C   UNL     1     -30.796  -8.593  19.860  0.00  0.00    +0.039 A 
ATOM      5  C   UNL     1     -30.847  -8.586  21.255  0.00  0.00    +0.126 A 
ATOM      6  F   UNL     1     -31.284  -7.483  21.912  0.00  0.00    -0.205 F 
ATOM      7  C   UNL     1     -30.444  -9.713  21.974  0.00  0.00    +0.077 A 
ATOM      8  C   UNL     1     -29.991 -10.854  21.302  0.00  0.00    +0.131 A 
ATOM      9  F   UNL     1     -29.594 -11.928  22.030  0.00  0.00    -0.205 F 
ENDBRANCH   1   2
BRANCH   1  10
ATOM     10  N   UNL     1     -30.019 -12.179  17.813  0.00  0.00    -0.304 N 
ATOM     11  C   UNL     1     -30.302 -13.434  17.175  0.00  0.00    +0.248 C 
ATOM     12  O   UNL     1     -30.340 -14.492  17.861  0.00  0.00    -0.270 OA
ATOM     13  H   UNL     1     -30.306 -11.305  17.316  0.00  0.00    +0.150 HD
BRANCH  11  14
ATOM     14  C   UNL     1     -30.583 -13.498  15.723  0.00  0.00    +0.078 A 
ATOM     15  C   UNL     1     -29.944 -14.477  14.942  0.00  0.00    +0.017 A 
ATOM     16  C   UNL     1     -30.200 -14.572  13.574  0.00  0.00    +0.001 A 
ATOM     17  C   UNL     1     -31.089 -13.686  12.966  0.00  0.00    +0.004 A 
ATOM     18  C   UNL     1     -31.717 -12.695  13.722  0.00  0.00    +0.046 A 
ATOM     19  C   UNL     1     -31.464 -12.581  15.104  0.00  0.00    +0.139 A 
BRANCH  19  20
ATOM     20  O   UNL     1     -32.043 -11.560  15.877  0.00  0.00    -0.433 OA
BRANCH  20  21
ATOM     21  C   UNL     1     -31.910 -10.164  15.626  0.00  0.00    +0.541 C 
ATOM     22  F   UNL     1     -30.578  -9.813  15.732  0.00  0.00    -0.166 F 
ATOM     23  F   UNL     1     -32.639  -9.445  16.557  0.00  0.00    -0.166 F 
ENDBRANCH  20  21
ENDBRANCH  19  20
ENDBRANCH  11  14
ENDBRANCH   1  10
BRANCH   1  24
ATOM     24  C   UNL     1     -27.877 -12.054  19.033  0.00  0.00    +0.147 C 
BRANCH  24  25
ATOM     25  C   UNL     1     -27.244 -13.193  19.773  0.00  0.00    +0.309 C 
ATOM     26  O   UNL     1     -27.969 -14.021  20.389  0.00  0.00    -0.251 OA
BRANCH  25  28
ATOM     27  C   UNL     1     -25.175 -14.215  20.662  0.00  0.00    +0.280 C 
ATOM     28  O   UNL     1     -25.850 -13.291  19.818  0.00  0.00    -0.468 OA
ENDBRANCH  25  28
ENDBRANCH  24  25
ENDBRANCH   1  24
TORSDOF 8
ENDMDL
MODEL 4
REMARK VINA RESULT:    -4.749      2.320      3.364
REMARK INTER + INTRA:          -9.149
REMARK INTER:                  -7.041
REMARK INTRA:                  -2.108
REMARK UNBOUND:                -2.179
REMARK  Name = 
REMARK  9 active torsions:
REMARK  status: ('A' for Active; 'I' for Inactive)
REMARK    1  A    between atoms: C_1  and  O_2
REMARK    2  A    between atoms: O_2  and  C_3
REMARK    3  A    between atoms: C_3  and  C_5
REMARK    4  A    between atoms: C_5  and  C_6
REMARK    5  A    between atoms: C_6  and  N_7
REMARK    6  A    between atoms: C_6  and  C_20
REMARK    7  A    between atoms: C_8  and  C_10
REMARK    8  A    between atoms: C_15  and  O_16
REMARK    9  A    between atoms: O_16  and  C_17
REMARK                            x       y       z     vdW  Elec       q    Type
REMARK                         _______ _______ _______ _____ _____    ______ ____
ROOT
ATOM      1  C   UNL     1     -29.944 -12.034  19.500  0.00  0.00    +0.117 C 
ENDROOT
BRANCH   1   2
ATOM      2  C   UNL     1     -28.670 -12.730  19.955  0.00  0.00    +0.009 A 
ATOM      3  C   UNL     1     -28.707 -13.666  21.007  0.00  0.00    +0.011 A 
ATOM      4  C   UNL     1     -27.535 -14.283  21.451  0.00  0.00    +0.039 A 
ATOM      5  C   UNL     1     -26.311 -13.971  20.857  0.00  0.00    +0.126 A 
ATOM      6  F   UNL     1     -25.174 -14.570  21.290  0.00  0.00    -0.205 F 
ATOM      7  C   UNL     1     -26.257 -13.040  19.817  0.00  0.00    +0.077 A 
ATOM      8  C   UNL     1     -27.426 -12.417  19.366  0.00  0.00    +0.131 A 
ATOM      9  F   UNL     1     -27.337 -11.507  18.363  0.00  0.00    -0.205 F 
ENDBRANCH   1   2
BRANCH   1  10
ATOM     10  N   UNL     1     -30.158 -12.246  18.062  0.00  0.00    -0.304 N 
ATOM     11  C   UNL     1     -30.397 -13.548  17.504  0.00  0.00    +0.248 C 
ATOM     12  O   UNL     1     -30.749 -14.498  18.257  0.00  0.00    -0.270 OA
ATOM     13  H   UNL     1     -30.190 -11.425  17.415  0.00  0.00    +0.150 HD
BRANCH  11  14
ATOM     14  C   UNL     1     -30.269 -13.781  16.048  0.00  0.00    +0.078 A 
ATOM     15  C   UNL     1     -29.422 -14.806  15.590  0.00  0.00    +0.017 A 
ATOM     16  C   UNL     1     -29.291 -15.060  14.224  0.00  0.00    +0.001 A 
ATOM     17  C   UNL     1     -29.996 -14.291  13.299  0.00  0.00    +0.004 A 
ATOM     18  C   UNL     1     -30.826 -13.256  13.735  0.00  0.00    +0.046 A 
ATOM     19  C   UNL     1     -30.963 -12.981  15.111  0.00  0.00    +0.139 A 
BRANCH  19  20
ATOM     20  O   UNL     1     -31.752 -11.914  15.574  0.00  0.00    -0.433 OA
BRANCH  20  21
ATOM     21  C   UNL     1     -31.610 -10.554  15.172  0.00  0.00    +0.541 C 
ATOM     22  F   UNL     1     -30.727  -9.922  16.027  0.00  0.00    -0.166 F 
ATOM     23  F   UNL     1     -32.834  -9.913  15.237  0.00  0.00    -0.166 F 
ENDBRANCH  20  21
ENDBRANCH  19  20
ENDBRANCH  11  14
ENDBRANCH   1  10
BRANCH   1  24
ATOM     24  C   UNL     1     -31.166 -12.536  20.296  0.00  0.00    +0.147 C 
BRANCH  24  25
ATOM     25  C   UNL     1     -32.356 -11.649  20.088  0.00  0.00    +0.309 C 
ATOM     26  O   UNL     1     -33.226 -11.544  20.996  0.00  0.00    -0.251 OA
BRANCH  25  28
ATOM     27  C   UNL     1     -33.747 -10.400  18.469  0.00  0.00    +0.280 C 
ATOM     28  O   UNL     1     -32.516 -10.991  18.865  0.00  0.00    -0.468 OA
ENDBRANCH  25  28
ENDBRANCH  24  25
ENDBRANCH   1  24
TORSDOF 8
ENDMDL
MODEL 5
REMARK VINA RESULT:    -4.728      3.083      5.115
REMARK INTER + INTRA:          -9.118
REMARK INTER:                  -7.052
REMARK INTRA:                  -2.066
REMARK UNBOUND:                -2.179
REMARK  Name = 
REMARK  9 active torsions:
REMARK  status: ('A' for Active; 'I' for Inactive)
REMARK    1  A    between atoms: C_1  and  O_2
REMARK    2  A    between atoms: O_2  and  C_3
REMARK    3  A    between atoms: C_3  and  C_5
REMARK    4  A    between atoms: C_5  and  C_6
REMARK    5  A    between atoms: C_6  and  N_7
REMARK    6  A    between atoms: C_6  and  C_20
REMARK    7  A    between atoms: C_8  and  C_10
REMARK    8  A    between atoms: C_15  and  O_16
REMARK    9  A    between atoms: O_16  and  C_17
REMARK                            x       y       z     vdW  Elec       q    Type
REMARK                         _______ _______ _______ _____ _____    ______ ____
ROOT
ATOM      1  C   UNL     1     -29.774 -13.236  19.885  0.00  0.00    +0.117 C 
ENDROOT
BRANCH   1   2
ATOM      2  C   UNL     1     -30.420 -11.862  19.976  0.00  0.00    +0.009 A 
ATOM      3  C   UNL     1     -29.622 -10.704  20.064  0.00  0.00    +0.011 A 
ATOM      4  C   UNL     1     -30.211  -9.443  20.180  0.00  0.00    +0.039 A 
ATOM      5  C   UNL     1     -31.601  -9.319  20.218  0.00  0.00    +0.126 A 
ATOM      6  F   UNL     1     -32.170  -8.094  20.333  0.00  0.00    -0.205 F 
ATOM      7  C   UNL     1     -32.405 -10.458  20.139  0.00  0.00    +0.077 A 
ATOM      8  C   UNL     1     -31.824 -11.725  20.021  0.00  0.00    +0.131 A 
ATOM      9  F   UNL     1     -32.633 -12.813  19.960  0.00  0.00    -0.205 F 
ENDBRANCH   1   2
BRANCH   1  10
ATOM     10  N   UNL     1     -29.977 -13.810  18.548  0.00  0.00    -0.304 N 
ATOM     11  C   UNL     1     -29.136 -13.478  17.432  0.00  0.00    +0.248 C 
ATOM     12  O   UNL     1     -28.013 -12.939  17.632  0.00  0.00    -0.270 OA
ATOM     13  H   UNL     1     -30.724 -14.526  18.399  0.00  0.00    +0.150 HD
BRANCH  11  14
ATOM     14  C   UNL     1     -29.558 -13.791  16.048  0.00  0.00    +0.078 A 
ATOM     15  C   UNL     1     -28.802 -14.703  15.291  0.00  0.00    +0.017 A 
ATOM     16  C   UNL     1     -29.182 -15.030  13.989  0.00  0.00    +0.001 A 
ATOM     17  C   UNL     1     -30.315 -14.446  13.423  0.00  0.00    +0.004 A 
ATOM     18  C   UNL     1     -31.066 -13.523  14.154  0.00  0.00    +0.046 A 
ATOM     19  C   UNL     1     -30.692 -13.176  15.468  0.00  0.00    +0.139 A 
BRANCH  19  20
ATOM     20  O   UNL     1     -31.400 -12.213  16.207  0.00  0.00    -0.433 OA
BRANCH  20  21
ATOM     21  C   UNL     1     -31.280 -10.802  16.043  0.00  0.00    +0.541 C 
ATOM     22  F   UNL     1     -30.077 -10.388  16.582  0.00  0.00    -0.166 F 
ATOM     23  F   UNL     1     -32.312 -10.161  16.705  0.00  0.00    -0.166 F 
ENDBRANCH  20  21
ENDBRANCH  19  20
ENDBRANCH  11  14
ENDBRANCH   1  10
BRANCH   1  24
ATOM     24  C   UNL     1     -28.266 -13.163  20.205  0.00  0.00    +0.147 C 
BRANCH  24  25
ATOM     25  C   UNL     1     -27.840 -14.295  21.090  0.00  0.00    +0.309 C 
ATOM     26  O   UNL     1     -28.568 -14.640  22.060  0.00  0.00    -0.251 OA
BRANCH  25  28
ATOM     27  C   UNL     1     -25.404 -14.191  20.677  0.00  0.00    +0.280 C 
ATOM     28  O   UNL     1     -26.610 -14.920  20.862  0.00  0.00    -0.468 OA
ENDBRANCH  25  28
ENDBRANCH  24  25
ENDBRANCH   1  24
TORSDOF 8
ENDMDL
MODEL 6
REMARK VINA RESULT:    -4.709      3.057      7.166
REMARK INTER + INTRA:          -9.090
REMARK INTER:                  -6.621
REMARK INTRA:                  -2.469
REMARK UNBOUND:                -2.179
REMARK  Name = 
REMARK  9 active torsions:
REMARK  status: ('A' for Active; 'I' for Inactive)
REMARK    1  A    between atoms: C_1  and  O_2
REMARK    2  A    between atoms: O_2  and  C_3
REMARK    3  A    between atoms: C_3  and  C_5
REMARK    4  A    between atoms: C_5  and  C_6
REMARK    5  A    between atoms: C_6  and  N_7
REMARK    6  A    between atoms: C_6  and  C_20
REMARK    7  A    between atoms: C_8  and  C_10
REMARK    8  A    between atoms: C_15  and  O_16
REMARK    9  A    between atoms: O_16  and  C_17
REMARK                            x       y       z     vdW  Elec       q    Type
REMARK                         _______ _______ _______ _____ _____    ______ ____
ROOT
ATOM      1  C   UNL     1     -29.941 -12.630  16.675  0.00  0.00    +0.117 C 
ENDROOT
BRANCH   1   2
ATOM      2  C   UNL     1     -31.131 -11.682  16.717  0.00  0.00    +0.009 A 
ATOM      3  C   UNL     1     -32.445 -12.188  16.662  0.00  0.00    +0.011 A 
ATOM      4  C   UNL     1     -33.541 -11.321  16.668  0.00  0.00    +0.039 A 
ATOM      5  C   UNL     1     -33.341  -9.940  16.721  0.00  0.00    +0.126 A 
ATOM      6  F   UNL     1     -34.405  -9.100  16.724  0.00  0.00    -0.205 F 
ATOM      7  C   UNL     1     -32.044  -9.424  16.769  0.00  0.00    +0.077 A 
ATOM      8  C   UNL     1     -30.941 -10.285  16.765  0.00  0.00    +0.131 A 
ATOM      9  F   UNL     1     -29.694  -9.751  16.798  0.00  0.00    -0.205 F 
ENDBRANCH   1   2
BRANCH   1  10
ATOM     10  N   UNL     1     -29.490 -12.946  18.037  0.00  0.00    -0.304 N 
ATOM     11  C   UNL     1     -28.199 -12.556  18.529  0.00  0.00    +0.248 C 
ATOM     12  O   UNL     1     -27.543 -11.661  17.929  0.00  0.00    -0.270 OA
ATOM     13  H   UNL     1     -30.139 -13.428  18.700  0.00  0.00    +0.150 HD
BRANCH  11  14
ATOM     14  C   UNL     1     -27.641 -13.169  19.756  0.00  0.00    +0.078 A 
ATOM     15  C   UNL     1     -26.265 -13.452  19.816  0.00  0.00    +0.017 A 
ATOM     16  C   UNL     1     -25.706 -14.016  20.964  0.00  0.00    +0.001 A 
ATOM     17  C   UNL     1     -26.514 -14.313  22.061  0.00  0.00    +0.004 A 
ATOM     18  C   UNL     1     -27.886 -14.057  22.011  0.00  0.00    +0.046 A 
ATOM     19  C   UNL     1     -28.467 -13.494  20.856  0.00  0.00    +0.139 A 
BRANCH  19  20
ATOM     20  O   UNL     1     -29.852 -13.275  20.761  0.00  0.00    -0.433 OA
BRANCH  20  21
ATOM     21  C   UNL     1     -30.530 -12.103  21.205  0.00  0.00    +0.541 C 
ATOM     22  F   UNL     1     -31.519 -11.783  20.295  0.00  0.00    -0.166 F 
ATOM     23  F   UNL     1     -29.640 -11.047  21.290  0.00  0.00    -0.166 F 
ENDBRANCH  20  21
ENDBRANCH  19  20
ENDBRANCH  11  14
ENDBRANCH   1  10
BRANCH   1  24
ATOM     24  C   UNL     1     -30.291 -13.928  15.918  0.00  0.00    +0.147 C 
BRANCH  24  25
ATOM     25  C   UNL     1     -29.099 -14.476  15.195  0.00  0.00    +0.309 C 
ATOM     26  O   UNL     1     -27.949 -14.359  15.702  0.00  0.00    -0.251 OA
BRANCH  25  28
ATOM     27  C   UNL     1     -28.331 -14.894  12.881  0.00  0.00    +0.280 C 
ATOM     28  O   UNL     1     -29.268 -15.062  13.937  0.00  0.00    -0.468 OA
ENDBRANCH  25  28
ENDBRANCH  24  25
ENDBRANCH   1  24
TORSDOF 8
ENDMDL
MODEL 7
REMARK VINA RESULT:    -4.566      2.853      4.873
REMARK INTER + INTRA:          -8.880
REMARK INTER:                  -6.447
REMARK INTRA:                  -2.433
REMARK UNBOUND:                -2.179
REMARK  Name = 
REMARK  9 active torsions:
REMARK  status: ('A' for Active; 'I' for Inactive)
REMARK    1  A    between atoms: C_1  and  O_2
REMARK    2  A    between atoms: O_2  and  C_3
REMARK    3  A    between atoms: C_3  and  C_5
REMARK    4  A    between atoms: C_5  and  C_6
REMARK    5  A    between atoms: C_6  and  N_7
REMARK    6  A    between atoms: C_6  and  C_20
REMARK    7  A    between atoms: C_8  and  C_10
REMARK    8  A    between atoms: C_15  and  O_16
REMARK    9  A    between atoms: O_16  and  C_17
REMARK                            x       y       z     vdW  Elec       q    Type
REMARK                         _______ _______ _______ _____ _____    ______ ____
ROOT
ATOM      1  C   UNL     1     -29.782 -11.720  18.397  0.00  0.00    +0.117 C 
ENDROOT
BRANCH   1   2
ATOM      2  C   UNL     1     -30.835 -10.867  19.090  0.00  0.00    +0.009 A 
ATOM      3  C   UNL     1     -30.561  -9.524  19.416  0.00  0.00    +0.011 A 
ATOM      4  C   UNL     1     -31.512  -8.746  20.081  0.00  0.00    +0.039 A 
ATOM      5  C   UNL     1     -32.744  -9.298  20.436  0.00  0.00    +0.126 A 
ATOM      6  F   UNL     1     -33.665  -8.543  21.084  0.00  0.00    -0.205 F 
ATOM      7  C   UNL     1     -33.027 -10.630  20.127  0.00  0.00    +0.077 A 
ATOM      8  C   UNL     1     -32.081 -11.416  19.460  0.00  0.00    +0.131 A 
ATOM      9  F   UNL     1     -32.382 -12.711  19.186  0.00  0.00    -0.205 F 
ENDBRANCH   1   2
BRANCH   1  10
ATOM     10  N   UNL     1     -30.243 -12.116  17.060  0.00  0.00    -0.304 N 
ATOM     11  C   UNL     1     -30.158 -13.469  16.587  0.00  0.00    +0.248 C 
ATOM     12  O   UNL     1     -29.986 -14.411  17.408  0.00  0.00    -0.270 OA
ATOM     13  H   UNL     1     -30.698 -11.410  16.437  0.00  0.00    +0.150 HD
BRANCH  11  14
ATOM     14  C   UNL     1     -30.304 -13.777  15.146  0.00  0.00    +0.078 A 
ATOM     15  C   UNL     1     -29.314 -14.541  14.504  0.00  0.00    +0.017 A 
ATOM     16  C   UNL     1     -29.430 -14.860  13.151  0.00  0.00    +0.001 A 
ATOM     17  C   UNL     1     -30.530 -14.414  12.419  0.00  0.00    +0.004 A 
ATOM     18  C   UNL     1     -31.513 -13.638  13.036  0.00  0.00    +0.046 A 
ATOM     19  C   UNL     1     -31.407 -13.300  14.401  0.00  0.00    +0.139 A 
BRANCH  19  20
ATOM     20  O   UNL     1     -32.356 -12.478  15.032  0.00  0.00    -0.433 OA
BRANCH  20  21
ATOM     21  C   UNL     1     -32.483 -11.072  14.836  0.00  0.00    +0.541 C 
ATOM     22  F   UNL     1     -31.242 -10.545  14.533  0.00  0.00    -0.166 F 
ATOM     23  F   UNL     1     -32.954 -10.475  15.991  0.00  0.00    -0.166 F 
ENDBRANCH  20  21
ENDBRANCH  19  20
ENDBRANCH  11  14
ENDBRANCH   1  10
BRANCH   1  24
ATOM     24  C   UNL     1     -28.439 -10.968  18.293  0.00  0.00    +0.147 C 
BRANCH  24  25
ATOM     25  C   UNL     1     -27.290 -11.845  18.687  0.00  0.00    +0.309 C 
ATOM     26  O   UNL     1     -26.115 -11.386  18.665  0.00  0.00    -0.251 OA
BRANCH  25  28
ATOM     27  C   UNL     1     -27.159 -13.734  20.279  0.00  0.00    +0.280 C 
ATOM     28  O   UNL     1     -27.530 -13.181  19.022  0.00  0.00    -0.468 OA
ENDBRANCH  25  28
ENDBRANCH  24  25
ENDBRANCH   1  24
TORSDOF 8
ENDMDL
MODEL 8
REMARK VINA RESULT:    -4.429      2.983      4.937
REMARK INTER + INTRA:          -8.679
REMARK INTER:                  -6.287
REMARK INTRA:                  -2.391
REMARK UNBOUND:                -2.179
REMARK  Name = 
REMARK  9 active torsions:
REMARK  status: ('A' for Active; 'I' for Inactive)
REMARK    1  A    between atoms: C_1  and  O_2
REMARK    2  A    between atoms: O_2  and  C_3
REMARK    3  A    between atoms: C_3  and  C_5
REMARK    4  A    between atoms: C_5  and  C_6
REMARK    5  A    between atoms: C_6  and  N_7
REMARK    6  A    between atoms: C_6  and  C_20
REMARK    7  A    between atoms: C_8  and  C_10
REMARK    8  A    between atoms: C_15  and  O_16
REMARK    9  A    between atoms: O_16  and  C_17
REMARK                            x       y       z     vdW  Elec       q    Type
REMARK                         _______ _______ _______ _____ _____    ______ ____
ROOT
ATOM      1  C   UNL     1     -30.240 -12.135  18.981  0.00  0.00    +0.117 C 
ENDROOT
BRANCH   1   2
ATOM      2  C   UNL     1     -31.367 -11.181  19.350  0.00  0.00    +0.009 A 
ATOM      3  C   UNL     1     -32.299 -11.533  20.347  0.00  0.00    +0.011 A 
ATOM      4  C   UNL     1     -33.354 -10.675  20.668  0.00  0.00    +0.039 A 
ATOM      5  C   UNL     1     -33.498  -9.460  19.994  0.00  0.00    +0.126 A 
ATOM      6  F   UNL     1     -34.524  -8.630  20.305  0.00  0.00    -0.205 F 
ATOM      7  C   UNL     1     -32.587  -9.102  18.999  0.00  0.00    +0.077 A 
ATOM      8  C   UNL     1     -31.527  -9.954  18.672  0.00  0.00    +0.131 A 
ATOM      9  F   UNL     1     -30.666  -9.583  17.691  0.00  0.00    -0.205 F 
ENDBRANCH   1   2
BRANCH   1  10
ATOM     10  N   UNL     1     -30.207 -12.350  17.528  0.00  0.00    -0.304 N 
ATOM     11  C   UNL     1     -30.694 -13.555  16.917  0.00  0.00    +0.248 C 
ATOM     12  O   UNL     1     -31.453 -14.325  17.568  0.00  0.00    -0.270 OA
ATOM     13  H   UNL     1     -29.865 -11.588  16.899  0.00  0.00    +0.150 HD
BRANCH  11  14
ATOM     14  C   UNL     1     -30.343 -13.888  15.518  0.00  0.00    +0.078 A 
ATOM     15  C   UNL     1     -29.161 -14.605  15.260  0.00  0.00    +0.017 A 
ATOM     16  C   UNL     1     -28.810 -14.947  13.954  0.00  0.00    +0.001 A 
ATOM     17  C   UNL     1     -29.629 -14.572  12.889  0.00  0.00    +0.004 A 
ATOM     18  C   UNL     1     -30.796 -13.843  13.126  0.00  0.00    +0.046 A 
ATOM     19  C   UNL     1     -31.161 -13.483  14.439  0.00  0.00    +0.139 A 
BRANCH  19  20
ATOM     20  O   UNL     1     -32.303 -12.706  14.699  0.00  0.00    -0.433 OA
BRANCH  20  21
ATOM     21  C   UNL     1     -32.343 -11.281  14.701  0.00  0.00    +0.541 C 
ATOM     22  F   UNL     1     -31.066 -10.795  14.905  0.00  0.00    -0.166 F 
ATOM     23  F   UNL     1     -33.162 -10.834  15.723  0.00  0.00    -0.166 F 
ENDBRANCH  20  21
ENDBRANCH  19  20
ENDBRANCH  11  14
ENDBRANCH   1  10
BRANCH   1  24
ATOM     24  C   UNL     1     -28.878 -11.601  19.469  0.00  0.00    +0.147 C 
BRANCH  24  25
ATOM     25  C   UNL     1     -27.786 -12.603  19.245  0.00  0.00    +0.309 C 
ATOM     26  O   UNL     1     -27.597 -13.077  18.091  0.00  0.00    -0.251 OA
BRANCH  25  28
ATOM     27  C   UNL     1     -27.535 -13.944  21.309  0.00  0.00    +0.280 C 
ATOM     28  O   UNL     1     -27.026 -13.045  20.332  0.00  0.00    -0.468 OA
ENDBRANCH  25  28
ENDBRANCH  24  25
ENDBRANCH   1  24
TORSDOF 8
ENDMDL
