MODEL 1
REMARK VINA RESULT:    -3.719      0.000      0.000
REMARK INTER + INTRA:          -5.160
REMARK INTER:                  -4.589
REMARK INTRA:                  -0.571
REMARK UNBOUND:                -0.571
REMARK  Name = 
REMARK  6 active torsions:
REMARK  status: ('A' for Active; 'I' for Inactive)
REMARK    1  A    between atoms: C_1  and  C_2
REMARK    2  A    between atoms: C_2  and  C_3
REMARK    3  A    between atoms: C_3  and  C_4
REMARK    4  A    between atoms: C_3  and  N_6
REMARK    5  A    between atoms: C_4  and  C_5
REMARK    6  A    between atoms: C_10  and  N_14
REMARK                            x       y       z     vdW  Elec       q    Type
REMARK                         _______ _______ _______ _____ _____    ______ ____
ROOT
ATOM      1  N   UNL     1     -31.277 -13.134  19.963  0.00  0.00    -0.311 N 
ATOM      2  C   UNL     1     -29.845 -13.158  20.024  0.00  0.00    +0.217 A 
ATOM      3  N   UNL     1     -29.101 -12.450  19.135  0.00  0.00    -0.221 NA
ATOM      4  C   UNL     1     -27.746 -12.466  19.184  0.00  0.00    +0.150 A 
ATOM      5  C   UNL     1     -27.082 -13.211  20.168  0.00  0.00    +0.184 A 
ATOM      6  C   UNL     1     -27.870 -13.963  21.066  0.00  0.00    +0.152 A 
ATOM      7  N   UNL     1     -27.286 -14.832  22.041  0.00  0.00    -0.341 N 
ATOM      8  N   UNL     1     -29.226 -13.908  20.972  0.00  0.00    -0.198 NA
ATOM      9  H   UNL     1     -31.807 -13.678  20.682  0.00  0.00    +0.149 HD
ATOM     10  H   UNL     1     -27.896 -15.312  22.738  0.00  0.00    +0.144 HD
ATOM     11  H   UNL     1     -26.280 -15.104  22.011  0.00  0.00    +0.144 HD
ENDROOT
BRANCH   5  12
ATOM     12  N   UNL     1     -25.648 -13.166  20.249  0.00  0.00    +0.061 N 
ATOM     13  O   UNL     1     -24.938 -12.357  19.393  0.00  0.00    -0.126 OA
ATOM     14  O   UNL     1     -25.055 -13.682  21.219  0.00  0.00    -0.126 OA
ENDBRANCH   5  12
BRANCH   1  15
ATOM     15  C   UNL     1     -32.009 -12.349  18.960  0.00  0.00    +0.073 C 
BRANCH  15  17
ATOM     16  C   UNL     1     -32.396 -12.598  16.442  0.00  0.00    +0.006 C 
ATOM     17  C   UNL     1     -32.476 -13.280  17.808  0.00  0.00    +0.019 C 
ENDBRANCH  15  17
BRANCH  15  18
ATOM     18  C   UNL     1     -33.193 -11.623  19.642  0.00  0.00    +0.019 C 
ATOM     19  C   UNL     1     -32.842 -11.067  21.021  0.00  0.00    +0.006 C 
ENDBRANCH  15  18
ENDBRANCH   1  15
TORSDOF 4
ENDMDL
MODEL 2
REMARK VINA RESULT:    -3.683      2.035      2.387
REMARK INTER + INTRA:          -5.115
REMARK INTER:                  -4.475
REMARK INTRA:                  -0.641
REMARK UNBOUND:                -0.571
REMARK  Name = 
REMARK  6 active torsions:
REMARK  status: ('A' for Active; 'I' for Inactive)
REMARK    1  A    between atoms: C_1  and  C_2
REMARK    2  A    between atoms: C_2  and  C_3
REMARK    3  A    between atoms: C_3  and  C_4
REMARK    4  A    between atoms: C_3  and  N_6
REMARK    5  A    between atoms: C_4  and  C_5
REMARK    6  A    between atoms: C_10  and  N_14
REMARK                            x       y       z     vdW  Elec       q    Type
REMARK                         _______ _______ _______ _____ _____    ______ ____
ROOT
ATOM      1  N   UNL     1     -30.709 -11.832  17.814  0.00  0.00    -0.311 N 
ATOM      2  C   UNL     1     -29.512 -12.214  18.503  0.00  0.00    +0.217 A 
ATOM      3  N   UNL     1     -28.299 -11.761  18.089  0.00  0.00    -0.221 NA
ATOM      4  C   UNL     1     -27.160 -12.117  18.734  0.00  0.00    +0.150 A 
ATOM      5  C   UNL     1     -27.214 -12.955  19.856  0.00  0.00    +0.184 A 
ATOM      6  C   UNL     1     -28.479 -13.438  20.256  0.00  0.00    +0.152 A 
ATOM      7  N   UNL     1     -28.628 -14.376  21.326  0.00  0.00    -0.341 N 
ATOM      8  N   UNL     1     -29.589 -13.047  19.572  0.00  0.00    -0.198 NA
ATOM      9  H   UNL     1     -31.620 -12.188  18.182  0.00  0.00    +0.149 HD
ATOM     10  H   UNL     1     -29.584 -14.651  21.643  0.00  0.00    +0.144 HD
ATOM     11  H   UNL     1     -27.818 -14.894  21.727  0.00  0.00    +0.144 HD
ENDROOT
BRANCH   5  12
ATOM     12  N   UNL     1     -26.007 -13.269  20.569  0.00  0.00    +0.061 N 
ATOM     13  O   UNL     1     -26.066 -13.604  21.903  0.00  0.00    -0.126 OA
ATOM     14  O   UNL     1     -24.938 -13.450  19.950  0.00  0.00    -0.126 OA
ENDBRANCH   5  12
BRANCH   1  15
ATOM     15  C   UNL     1     -30.695 -10.939  16.647  0.00  0.00    +0.073 C 
BRANCH  15  17
ATOM     16  C   UNL     1     -30.851 -12.902  15.011  0.00  0.00    +0.006 C 
ATOM     17  C   UNL     1     -31.486 -11.593  15.480  0.00  0.00    +0.019 C 
ENDBRANCH  15  17
BRANCH  15  18
ATOM     18  C   UNL     1     -31.276  -9.563  17.048  0.00  0.00    +0.019 C 
ATOM     19  C   UNL     1     -32.705  -9.346  16.554  0.00  0.00    +0.006 C 
ENDBRANCH  15  18
ENDBRANCH   1  15
TORSDOF 4
ENDMDL
MODEL 3
REMARK VINA RESULT:    -3.671      2.086      2.197
REMARK INTER + INTRA:          -5.101
REMARK INTER:                  -4.561
REMARK INTRA:                  -0.540
REMARK UNBOUND:                -0.571
REMARK  Name = 
REMARK  6 active torsions:
REMARK  status: ('A' for Active; 'I' for Inactive)
REMARK    1  A    between atoms: C_1  and  C_2
REMARK    2  A    between atoms: C_2  and  C_3
REMARK    3  A    between atoms: C_3  and  C_4
REMARK    4  A    between atoms: C_3  and  N_6
REMARK    5  A    between atoms: C_4  and  C_5
REMARK    6  A    between atoms: C_10  and  N_14
REMARK                            x       y       z     vdW  Elec       q    Type
REMARK                         _______ _______ _______ _____ _____    ______ ____
ROOT
ATOM      1  N   UNL     1     -30.331 -11.153  19.118  0.00  0.00    -0.311 N 
ATOM      2  C   UNL     1     -29.153 -11.882  19.484  0.00  0.00    +0.217 A 
ATOM      3  N   UNL     1     -27.961 -11.618  18.889  0.00  0.00    -0.221 NA
ATOM      4  C   UNL     1     -26.839 -12.302  19.228  0.00  0.00    +0.150 A 
ATOM      5  C   UNL     1     -26.887 -13.294  20.216  0.00  0.00    +0.184 A 
ATOM      6  C   UNL     1     -28.139 -13.575  20.806  0.00  0.00    +0.152 A 
ATOM      7  N   UNL     1     -28.310 -14.635  21.751  0.00  0.00    -0.341 N 
ATOM      8  N   UNL     1     -29.230 -12.856  20.428  0.00  0.00    -0.198 NA
ATOM      9  H   UNL     1     -31.221 -11.378  19.620  0.00  0.00    +0.149 HD
ATOM     10  H   UNL     1     -29.232 -14.763  22.223  0.00  0.00    +0.144 HD
ATOM     11  H   UNL     1     -27.584 -15.367  21.902  0.00  0.00    +0.144 HD
ENDROOT
BRANCH   5  12
ATOM     12  N   UNL     1     -25.679 -13.963  20.613  0.00  0.00    +0.061 N 
ATOM     13  O   UNL     1     -25.342 -14.038  21.945  0.00  0.00    -0.126 OA
ATOM     14  O   UNL     1     -25.046 -14.659  19.792  0.00  0.00    -0.126 OA
ENDBRANCH   5  12
BRANCH   1  15
ATOM     15  C   UNL     1     -30.317 -10.093  18.102  0.00  0.00    +0.073 C 
BRANCH  15  17
ATOM     16  C   UNL     1     -31.699 -10.082  15.948  0.00  0.00    +0.006 C 
ATOM     17  C   UNL     1     -30.525 -10.715  16.695  0.00  0.00    +0.019 C 
ENDBRANCH  15  17
BRANCH  15  18
ATOM     18  C   UNL     1     -31.399  -9.042  18.443  0.00  0.00    +0.019 C 
ATOM     19  C   UNL     1     -31.182  -8.374  19.800  0.00  0.00    +0.006 C 
ENDBRANCH  15  18
ENDBRANCH   1  15
TORSDOF 4
ENDMDL
MODEL 4
REMARK VINA RESULT:    -3.641      3.786      5.357
REMARK INTER + INTRA:          -5.063
REMARK INTER:                  -4.603
REMARK INTRA:                  -0.460
REMARK UNBOUND:                -0.571
REMARK  Name = 
REMARK  6 active torsions:
REMARK  status: ('A' for Active; 'I' for Inactive)
REMARK    1  A    between atoms: C_1  and  C_2
REMARK    2  A    between atoms: C_2  and  C_3
REMARK    3  A    between atoms: C_3  and  C_4
REMARK    4  A    between atoms: C_3  and  N_6
REMARK    5  A    between atoms: C_4  and  C_5
REMARK    6  A    between atoms: C_10  and  N_14
REMARK                            x       y       z     vdW  Elec       q    Type
REMARK                         _______ _______ _______ _____ _____    ______ ____
ROOT
ATOM      1  N   UNL     1     -29.072 -14.112  14.862  0.00  0.00    -0.311 N 
ATOM      2  C   UNL     1     -29.368 -13.885  16.246  0.00  0.00    +0.217 A 
ATOM      3  N   UNL     1     -30.618 -14.099  16.731  0.00  0.00    -0.221 NA
ATOM      4  C   UNL     1     -30.909 -13.888  18.039  0.00  0.00    +0.150 A 
ATOM      5  C   UNL     1     -29.913 -13.454  18.925  0.00  0.00    +0.184 A 
ATOM      6  C   UNL     1     -28.626 -13.211  18.398  0.00  0.00    +0.152 A 
ATOM      7  N   UNL     1     -27.569 -12.673  19.199  0.00  0.00    -0.341 N 
ATOM      8  N   UNL     1     -28.391 -13.441  17.078  0.00  0.00    -0.198 NA
ATOM      9  H   UNL     1     -28.090 -13.954  14.539  0.00  0.00    +0.149 HD
ATOM     10  H   UNL     1     -26.611 -12.579  18.795  0.00  0.00    +0.144 HD
ATOM     11  H   UNL     1     -27.742 -12.253  20.137  0.00  0.00    +0.144 HD
ENDROOT
BRANCH   5  12
ATOM     12  N   UNL     1     -30.219 -13.299  20.320  0.00  0.00    +0.061 N 
ATOM     13  O   UNL     1     -29.266 -13.595  21.267  0.00  0.00    -0.126 OA
ATOM     14  O   UNL     1     -31.255 -12.700  20.676  0.00  0.00    -0.126 OA
ENDBRANCH   5  12
BRANCH   1  15
ATOM     15  C   UNL     1     -30.083 -14.586  13.908  0.00  0.00    +0.073 C 
BRANCH  15  17
ATOM     16  C   UNL     1     -31.786 -13.601  12.271  0.00  0.00    +0.006 C 
ATOM     17  C   UNL     1     -31.115 -13.458  13.637  0.00  0.00    +0.019 C 
ENDBRANCH  15  17
BRANCH  15  18
ATOM     18  C   UNL     1     -29.383 -15.062  12.613  0.00  0.00    +0.019 C 
ATOM     19  C   UNL     1     -27.959 -14.526  12.468  0.00  0.00    +0.006 C 
ENDBRANCH  15  18
ENDBRANCH   1  15
TORSDOF 4
ENDMDL
MODEL 5
REMARK VINA RESULT:    -3.629      3.226      4.540
REMARK INTER + INTRA:          -5.049
REMARK INTER:                  -4.443
REMARK INTRA:                  -0.606
REMARK UNBOUND:                -0.571
REMARK  Name = 
REMARK  6 active torsions:
REMARK  status: ('A' for Active; 'I' for Inactive)
REMARK    1  A    between atoms: C_1  and  C_2
REMARK    2  A    between atoms: C_2  and  C_3
REMARK    3  A    between atoms: C_3  and  C_4
REMARK    4  A    between atoms: C_3  and  N_6
REMARK    5  A    between atoms: C_4  and  C_5
REMARK    6  A    between atoms: C_10  and  N_14
REMARK                            x       y       z     vdW  Elec       q    Type
REMARK                         _______ _______ _______ _____ _____    ______ ____
ROOT
ATOM      1  N   UNL     1     -31.736 -12.921  14.892  0.00  0.00    -0.311 N 
ATOM      2  C   UNL     1     -30.940 -12.484  16.002  0.00  0.00    +0.217 A 
ATOM      3  N   UNL     1     -30.670 -11.165  16.185  0.00  0.00    -0.221 NA
ATOM      4  C   UNL     1     -29.919 -10.741  17.231  0.00  0.00    +0.150 A 
ATOM      5  C   UNL     1     -29.413 -11.662  18.159  0.00  0.00    +0.184 A 
ATOM      6  C   UNL     1     -29.680 -13.031  17.938  0.00  0.00    +0.152 A 
ATOM      7  N   UNL     1     -29.125 -14.054  18.771  0.00  0.00    -0.341 N 
ATOM      8  N   UNL     1     -30.441 -13.399  16.873  0.00  0.00    -0.198 NA
ATOM      9  H   UNL     1     -31.934 -13.944  14.806  0.00  0.00    +0.149 HD
ATOM     10  H   UNL     1     -29.407 -15.048  18.625  0.00  0.00    +0.144 HD
ATOM     11  H   UNL     1     -28.354 -13.863  19.445  0.00  0.00    +0.144 HD
ENDROOT
BRANCH   5  12
ATOM     12  N   UNL     1     -28.675 -11.192  19.299  0.00  0.00    +0.061 N 
ATOM     13  O   UNL     1     -29.313 -10.462  20.275  0.00  0.00    -0.126 OA
ATOM     14  O   UNL     1     -27.522 -11.616  19.522  0.00  0.00    -0.126 OA
ENDBRANCH   5  12
BRANCH   1  15
ATOM     15  C   UNL     1     -32.301 -11.985  13.912  0.00  0.00    +0.073 C 
BRANCH  15  17
ATOM     16  C   UNL     1     -33.340 -13.243  11.939  0.00  0.00    +0.006 C 
ATOM     17  C   UNL     1     -32.092 -12.543  12.477  0.00  0.00    +0.019 C 
ENDBRANCH  15  17
BRANCH  15  18
ATOM     18  C   UNL     1     -33.794 -11.745  14.234  0.00  0.00    +0.019 C 
ATOM     19  C   UNL     1     -34.139 -10.268  14.419  0.00  0.00    +0.006 C 
ENDBRANCH  15  18
ENDBRANCH   1  15
TORSDOF 4
ENDMDL
MODEL 6
REMARK VINA RESULT:    -3.566      3.441      4.914
REMARK INTER + INTRA:          -4.971
REMARK INTER:                  -4.323
REMARK INTRA:                  -0.647
REMARK UNBOUND:                -0.571
REMARK  Name = 
REMARK  6 active torsions:
REMARK  status: ('A' for Active; 'I' for Inactive)
REMARK    1  A    between atoms: C_1  and  C_2
REMARK    2  A    between atoms: C_2  and  C_3
REMARK    3  A    between atoms: C_3  and  C_4
REMARK    4  A    between atoms: C_3  and  N_6
REMARK    5  A    between atoms: C_4  and  C_5
REMARK    6  A    between atoms: C_10  and  N_14
REMARK                            x       y       z     vdW  Elec       q    Type
REMARK                         _______ _______ _______ _____ _____    ______ ____
ROOT
ATOM      1  N   UNL     1     -31.139 -14.028  15.349  0.00  0.00    -0.311 N 
ATOM      2  C   UNL     1     -30.723 -13.342  16.537  0.00  0.00    +0.217 A 
ATOM      3  N   UNL     1     -30.087 -12.144  16.458  0.00  0.00    -0.221 NA
ATOM      4  C   UNL     1     -29.689 -11.486  17.576  0.00  0.00    +0.150 A 
ATOM      5  C   UNL     1     -29.939 -12.028  18.843  0.00  0.00    +0.184 A 
ATOM      6  C   UNL     1     -30.577 -13.286  18.906  0.00  0.00    +0.152 A 
ATOM      7  N   UNL     1     -30.787 -13.967  20.146  0.00  0.00    -0.341 N 
ATOM      8  N   UNL     1     -30.955 -13.900  17.753  0.00  0.00    -0.198 NA
ATOM      9  H   UNL     1     -31.643 -14.937  15.461  0.00  0.00    +0.149 HD
ATOM     10  H   UNL     1     -31.330 -14.859  20.161  0.00  0.00    +0.144 HD
ATOM     11  H   UNL     1     -30.315 -13.674  21.028  0.00  0.00    +0.144 HD
ENDROOT
BRANCH   5  12
ATOM     12  N   UNL     1     -29.572 -11.288  20.019  0.00  0.00    +0.061 N 
ATOM     13  O   UNL     1     -29.697  -9.918  20.034  0.00  0.00    -0.126 OA
ATOM     14  O   UNL     1     -29.347 -11.884  21.094  0.00  0.00    -0.126 OA
ENDBRANCH   5  12
BRANCH   1  15
ATOM     15  C   UNL     1     -30.913 -13.483  14.004  0.00  0.00    +0.073 C 
BRANCH  15  17
ATOM     16  C   UNL     1     -28.741 -14.748  13.524  0.00  0.00    +0.006 C 
ATOM     17  C   UNL     1     -30.202 -14.546  13.123  0.00  0.00    +0.019 C 
ENDBRANCH  15  17
BRANCH  15  18
ATOM     18  C   UNL     1     -32.264 -13.032  13.401  0.00  0.00    +0.019 C 
ATOM     19  C   UNL     1     -32.433 -13.436  11.938  0.00  0.00    +0.006 C 
ENDBRANCH  15  18
ENDBRANCH   1  15
TORSDOF 4
ENDMDL
MODEL 7
REMARK VINA RESULT:    -3.353      2.071      3.379
REMARK INTER + INTRA:          -4.708
REMARK INTER:                  -4.021
REMARK INTRA:                  -0.686
REMARK UNBOUND:                -0.571
REMARK  Name = 
REMARK  6 active torsions:
REMARK  status: ('A' for Active; 'I' for Inactive)
REMARK    1  A    between atoms: C_1  and  C_2
REMARK    2  A    between atoms: C_2  and  C_3
REMARK    3  A    between atoms: C_3  and  C_4
REMARK    4  A    between atoms: C_3  and  N_6
REMARK    5  A    between atoms: C_4  and  C_5
REMARK    6  A    between atoms: C_10  and  N_14
REMARK                            x       y       z     vdW  Elec       q    Type
REMARK                         _______ _______ _______ _____ _____    ______ ____
ROOT
ATOM      1  N   UNL     1     -29.346 -10.249  17.853  0.00  0.00    -0.311 N 
ATOM      2  C   UNL     1     -28.757 -11.335  18.579  0.00  0.00    +0.217 A 
ATOM      3  N   UNL     1     -29.535 -12.288  19.154  0.00  0.00    -0.221 NA
ATOM      4  C   UNL     1     -28.988 -13.320  19.843  0.00  0.00    +0.150 A 
ATOM      5  C   UNL     1     -27.596 -13.430  19.967  0.00  0.00    +0.184 A 
ATOM      6  C   UNL     1     -26.803 -12.415  19.387  0.00  0.00    +0.152 A 
ATOM      7  N   UNL     1     -25.381 -12.384  19.543  0.00  0.00    -0.341 N 
ATOM      8  N   UNL     1     -27.406 -11.404  18.705  0.00  0.00    -0.198 NA
ATOM      9  H   UNL     1     -28.705  -9.551  17.411  0.00  0.00    +0.149 HD
ATOM     10  H   UNL     1     -24.821 -11.663  19.036  0.00  0.00    +0.144 HD
ATOM     11  H   UNL     1     -24.886 -12.979  20.241  0.00  0.00    +0.144 HD
ENDROOT
BRANCH   5  12
ATOM     12  N   UNL     1     -27.028 -14.563  20.642  0.00  0.00    +0.061 N 
ATOM     13  O   UNL     1     -25.740 -14.956  20.358  0.00  0.00    -0.126 OA
ATOM     14  O   UNL     1     -27.605 -15.062  21.631  0.00  0.00    -0.126 OA
ENDBRANCH   5  12
BRANCH   1  15
ATOM     15  C   UNL     1     -30.799 -10.111  17.683  0.00  0.00    +0.073 C 
BRANCH  15  17
ATOM     16  C   UNL     1     -32.670  -9.355  19.258  0.00  0.00    +0.006 C 
ATOM     17  C   UNL     1     -31.330  -8.991  18.620  0.00  0.00    +0.019 C 
ENDBRANCH  15  17
BRANCH  15  18
ATOM     18  C   UNL     1     -31.117  -9.830  16.196  0.00  0.00    +0.019 C 
ATOM     19  C   UNL     1     -31.723 -11.032  15.474  0.00  0.00    +0.006 C 
ENDBRANCH  15  18
ENDBRANCH   1  15
TORSDOF 4
ENDMDL
