MODEL 1
REMARK VINA RESULT:    -4.167      0.000      0.000
REMARK INTER + INTRA:          -5.269
REMARK INTER:                  -5.020
REMARK INTRA:                  -0.249
REMARK UNBOUND:                -0.249
REMARK  Name = 
REMARK  5 active torsions:
REMARK  status: ('A' for Active; 'I' for Inactive)
REMARK    1  A    between atoms: C_1  and  C_2
REMARK    2  A    between atoms: C_2  and  N_11
REMARK    3  A    between atoms: C_7  and  C_8
REMARK    4  A    between atoms: C_8  and  O_10
REMARK    5  A    between atoms: C_12  and  C_14
REMARK                            x       y       z     vdW  Elec       q    Type
REMARK                         _______ _______ _______ _____ _____    ______ ____
ROOT
ATOM      1  N   UNL     1     -29.953 -12.772  16.489  0.00  0.00    -0.305 N 
ATOM      2  C   UNL     1     -30.218 -14.068  15.913  0.00  0.00    +0.245 C 
ATOM      3  O   UNL     1     -30.794 -14.958  16.595  0.00  0.00    -0.270 OA
ATOM      4  H   UNL     1     -29.244 -12.178  16.004  0.00  0.00    +0.150 HD
ENDROOT
BRANCH   2   5
ATOM      5  C   UNL     1     -29.794 -14.387  14.528  0.00  0.00    +0.043 A 
ATOM      6  C   UNL     1     -30.732 -14.529  13.492  0.00  0.00    +0.031 A 
ATOM      7  C   UNL     1     -30.298 -14.841  12.202  0.00  0.00    +0.086 A 
ATOM      8  N   UNL     1     -28.974 -15.013  11.946  0.00  0.00    -0.329 N 
ATOM      9  C   UNL     1     -28.041 -14.894  12.930  0.00  0.00    +0.249 A 
ATOM     10  O   UNL     1     -26.820 -15.063  12.665  0.00  0.00    -0.268 OA
ATOM     11  C   UNL     1     -28.434 -14.583  14.236  0.00  0.00    +0.083 A 
ATOM     12  H   UNL     1     -28.674 -15.247  10.972  0.00  0.00    +0.168 HD
ENDBRANCH   2   5
BRANCH   1  14
ATOM     13  C   UNL     1     -30.109 -13.157  18.913  0.00  0.00    +0.032 C 
ATOM     14  C   UNL     1     -30.559 -12.254  17.739  0.00  0.00    +0.045 C 
ATOM     15  C   UNL     1     -30.030 -10.808  18.002  0.00  0.00    +0.026 C 
ATOM     16  C   UNL     1     -30.726  -9.703  17.173  0.00  0.00    +0.002 C 
ATOM     17  C   UNL     1     -31.568 -10.238  16.012  0.00  0.00    +0.001 C 
ATOM     18  C   UNL     1     -32.600 -11.289  16.459  0.00  0.00    +0.017 C 
ATOM     19  C   UNL     1     -32.119 -12.220  17.609  0.00  0.00    +0.121 C 
BRANCH  19  20
ATOM     20  C   UNL     1     -32.800 -11.865  18.915  0.00  0.00    +0.310 C 
ATOM     21  O   UNL     1     -33.263 -10.705  19.084  0.00  0.00    -0.251 OA
BRANCH  20  22
ATOM     22  O   UNL     1     -32.944 -12.814  19.924  0.00  0.00    -0.480 OA
ATOM     23  H   UNL     1     -32.198 -13.465  20.135  0.00  0.00    +0.295 HD
ENDBRANCH  20  22
ENDBRANCH  19  20
ENDBRANCH   1  14
TORSDOF 4
ENDMDL
MODEL 2
REMARK VINA RESULT:    -4.153      2.651      3.541
REMARK INTER + INTRA:          -5.251
REMARK INTER:                  -4.928
REMARK INTRA:                  -0.323
REMARK UNBOUND:                -0.249
REMARK  Name = 
REMARK  5 active torsions:
REMARK  status: ('A' for Active; 'I' for Inactive)
REMARK    1  A    between atoms: C_1  and  C_2
REMARK    2  A    between atoms: C_2  and  N_11
REMARK    3  A    between atoms: C_7  and  C_8
REMARK    4  A    between atoms: C_8  and  O_10
REMARK    5  A    between atoms: C_12  and  C_14
REMARK                            x       y       z     vdW  Elec       q    Type
REMARK                         _______ _______ _______ _____ _____    ______ ____
ROOT
ATOM      1  N   UNL     1     -30.688 -12.029  16.254  0.00  0.00    -0.305 N 
ATOM      2  C   UNL     1     -31.407 -13.086  15.586  0.00  0.00    +0.245 C 
ATOM      3  O   UNL     1     -31.393 -14.257  16.055  0.00  0.00    -0.270 OA
ATOM      4  H   UNL     1     -30.497 -11.166  15.697  0.00  0.00    +0.150 HD
ENDROOT
BRANCH   2   5
ATOM      5  C   UNL     1     -32.146 -12.827  14.326  0.00  0.00    +0.043 A 
ATOM      6  C   UNL     1     -31.726 -13.384  13.107  0.00  0.00    +0.031 A 
ATOM      7  C   UNL     1     -32.439 -13.110  11.938  0.00  0.00    +0.086 A 
ATOM      8  N   UNL     1     -33.534 -12.304  11.974  0.00  0.00    -0.329 N 
ATOM      9  C   UNL     1     -33.960 -11.740  13.137  0.00  0.00    +0.249 A 
ATOM     10  O   UNL     1     -34.975 -10.994  13.142  0.00  0.00    -0.268 OA
ATOM     11  C   UNL     1     -33.273 -11.989  14.330  0.00  0.00    +0.083 A 
ATOM     12  H   UNL     1     -34.051 -12.113  11.086  0.00  0.00    +0.168 HD
ENDBRANCH   2   5
BRANCH   1  14
ATOM     13  C   UNL     1     -29.018 -13.155  17.665  0.00  0.00    +0.032 C 
ATOM     14  C   UNL     1     -30.152 -12.102  17.634  0.00  0.00    +0.045 C 
ATOM     15  C   UNL     1     -29.543 -10.715  18.019  0.00  0.00    +0.026 C 
ATOM     16  C   UNL     1     -30.579  -9.650  18.448  0.00  0.00    +0.002 C 
ATOM     17  C   UNL     1     -32.025 -10.020  18.107  0.00  0.00    +0.001 C 
ATOM     18  C   UNL     1     -32.432 -11.400  18.656  0.00  0.00    +0.017 C 
ATOM     19  C   UNL     1     -31.297 -12.463  18.639  0.00  0.00    +0.121 C 
BRANCH  19  20
ATOM     20  C   UNL     1     -30.776 -12.723  20.039  0.00  0.00    +0.310 C 
ATOM     21  O   UNL     1     -30.757 -11.787  20.882  0.00  0.00    -0.251 OA
BRANCH  20  22
ATOM     22  O   UNL     1     -30.342 -13.991  20.413  0.00  0.00    -0.480 OA
ATOM     23  H   UNL     1     -30.996 -14.685  20.754  0.00  0.00    +0.295 HD
ENDBRANCH  20  22
ENDBRANCH  19  20
ENDBRANCH   1  14
TORSDOF 4
ENDMDL
MODEL 3
REMARK VINA RESULT:    -4.112      3.671      5.239
REMARK INTER + INTRA:          -5.202
REMARK INTER:                  -4.949
REMARK INTRA:                  -0.253
REMARK UNBOUND:                -0.249
REMARK  Name = 
REMARK  5 active torsions:
REMARK  status: ('A' for Active; 'I' for Inactive)
REMARK    1  A    between atoms: C_1  and  C_2
REMARK    2  A    between atoms: C_2  and  N_11
REMARK    3  A    between atoms: C_7  and  C_8
REMARK    4  A    between atoms: C_8  and  O_10
REMARK    5  A    between atoms: C_12  and  C_14
REMARK                            x       y       z     vdW  Elec       q    Type
REMARK                         _______ _______ _______ _____ _____    ______ ____
ROOT
ATOM      1  N   UNL     1     -31.405 -11.031  17.669  0.00  0.00    -0.305 N 
ATOM      2  C   UNL     1     -31.405 -10.239  16.462  0.00  0.00    +0.245 C 
ATOM      3  O   UNL     1     -30.412  -9.516  16.178  0.00  0.00    -0.270 OA
ATOM      4  H   UNL     1     -32.331 -11.383  17.999  0.00  0.00    +0.150 HD
ENDROOT
BRANCH   2   5
ATOM      5  C   UNL     1     -32.577 -10.236  15.553  0.00  0.00    +0.043 A 
ATOM      6  C   UNL     1     -33.531  -9.206  15.596  0.00  0.00    +0.031 A 
ATOM      7  C   UNL     1     -34.629  -9.241  14.734  0.00  0.00    +0.086 A 
ATOM      8  N   UNL     1     -34.781 -10.269  13.856  0.00  0.00    -0.329 N 
ATOM      9  C   UNL     1     -33.881 -11.288  13.798  0.00  0.00    +0.249 A 
ATOM     10  O   UNL     1     -34.048 -12.231  12.978  0.00  0.00    -0.268 OA
ATOM     11  C   UNL     1     -32.768 -11.291  14.645  0.00  0.00    +0.083 A 
ATOM     12  H   UNL     1     -35.610 -10.273  13.221  0.00  0.00    +0.168 HD
ENDBRANCH   2   5
BRANCH   1  14
ATOM     13  C   UNL     1     -29.694  -9.993  19.097  0.00  0.00    +0.032 C 
ATOM     14  C   UNL     1     -30.211 -11.323  18.496  0.00  0.00    +0.045 C 
ATOM     15  C   UNL     1     -30.623 -12.265  19.672  0.00  0.00    +0.026 C 
ATOM     16  C   UNL     1     -30.757 -13.757  19.290  0.00  0.00    +0.002 C 
ATOM     17  C   UNL     1     -30.791 -14.009  17.780  0.00  0.00    +0.001 C 
ATOM     18  C   UNL     1     -29.592 -13.383  17.045  0.00  0.00    +0.017 C 
ATOM     19  C   UNL     1     -29.112 -12.025  17.630  0.00  0.00    +0.121 C 
BRANCH  19  20
ATOM     20  C   UNL     1     -27.804 -12.189  18.378  0.00  0.00    +0.310 C 
ATOM     21  O   UNL     1     -27.067 -11.186  18.576  0.00  0.00    -0.251 OA
BRANCH  20  22
ATOM     22  O   UNL     1     -27.418 -13.431  18.873  0.00  0.00    -0.480 OA
ATOM     23  H   UNL     1     -27.895 -14.277  18.585  0.00  0.00    +0.295 HD
ENDBRANCH  20  22
ENDBRANCH  19  20
ENDBRANCH   1  14
TORSDOF 4
ENDMDL
MODEL 4
REMARK VINA RESULT:    -3.935      3.369      5.430
REMARK INTER + INTRA:          -4.989
REMARK INTER:                  -4.827
REMARK INTRA:                  -0.163
REMARK UNBOUND:                -0.249
REMARK  Name = 
REMARK  5 active torsions:
REMARK  status: ('A' for Active; 'I' for Inactive)
REMARK    1  A    between atoms: C_1  and  C_2
REMARK    2  A    between atoms: C_2  and  N_11
REMARK    3  A    between atoms: C_7  and  C_8
REMARK    4  A    between atoms: C_8  and  O_10
REMARK    5  A    between atoms: C_12  and  C_14
REMARK                            x       y       z     vdW  Elec       q    Type
REMARK                         _______ _______ _______ _____ _____    ______ ____
ROOT
ATOM      1  N   UNL     1     -29.815 -12.362  18.343  0.00  0.00    -0.305 N 
ATOM      2  C   UNL     1     -29.751 -13.114  19.573  0.00  0.00    +0.245 C 
ATOM      3  O   UNL     1     -30.810 -13.512  20.128  0.00  0.00    -0.270 OA
ATOM      4  H   UNL     1     -28.960 -11.825  18.075  0.00  0.00    +0.150 HD
ENDROOT
BRANCH   2   5
ATOM      5  C   UNL     1     -28.448 -13.404  20.221  0.00  0.00    +0.043 A 
ATOM      6  C   UNL     1     -28.382 -14.030  21.477  0.00  0.00    +0.031 A 
ATOM      7  C   UNL     1     -27.139 -14.278  22.062  0.00  0.00    +0.086 A 
ATOM      8  N   UNL     1     -25.994 -13.912  21.426  0.00  0.00    -0.329 N 
ATOM      9  C   UNL     1     -26.024 -13.294  20.214  0.00  0.00    +0.249 A 
ATOM     10  O   UNL     1     -24.948 -12.962  19.647  0.00  0.00    -0.268 OA
ATOM     11  C   UNL     1     -27.249 -13.027  19.593  0.00  0.00    +0.083 A 
ATOM     12  H   UNL     1     -25.076 -14.108  21.885  0.00  0.00    +0.168 HD
ENDBRANCH   2   5
BRANCH   1  14
ATOM     13  C   UNL     1     -31.371 -13.659  16.948  0.00  0.00    +0.032 C 
ATOM     14  C   UNL     1     -31.011 -12.248  17.475  0.00  0.00    +0.045 C 
ATOM     15  C   UNL     1     -32.211 -11.722  18.326  0.00  0.00    +0.026 C 
ATOM     16  C   UNL     1     -32.210 -10.196  18.572  0.00  0.00    +0.002 C 
ATOM     17  C   UNL     1     -30.881  -9.515  18.234  0.00  0.00    +0.001 C 
ATOM     18  C   UNL     1     -30.406  -9.816  16.801  0.00  0.00    +0.017 C 
ATOM     19  C   UNL     1     -30.733 -11.252  16.300  0.00  0.00    +0.121 C 
BRANCH  19  20
ATOM     20  C   UNL     1     -31.857 -11.229  15.283  0.00  0.00    +0.310 C 
ATOM     21  O   UNL     1     -32.703 -10.295  15.308  0.00  0.00    -0.251 OA
BRANCH  20  22
ATOM     22  O   UNL     1     -31.952 -12.213  14.304  0.00  0.00    -0.480 OA
ATOM     23  H   UNL     1     -31.129 -12.538  13.811  0.00  0.00    +0.295 HD
ENDBRANCH  20  22
ENDBRANCH  19  20
ENDBRANCH   1  14
TORSDOF 4
ENDMDL
MODEL 5
REMARK VINA RESULT:    -3.905      2.216      3.305
REMARK INTER + INTRA:          -4.953
REMARK INTER:                  -4.706
REMARK INTRA:                  -0.247
REMARK UNBOUND:                -0.249
REMARK  Name = 
REMARK  5 active torsions:
REMARK  status: ('A' for Active; 'I' for Inactive)
REMARK    1  A    between atoms: C_1  and  C_2
REMARK    2  A    between atoms: C_2  and  N_11
REMARK    3  A    between atoms: C_7  and  C_8
REMARK    4  A    between atoms: C_8  and  O_10
REMARK    5  A    between atoms: C_12  and  C_14
REMARK                            x       y       z     vdW  Elec       q    Type
REMARK                         _______ _______ _______ _____ _____    ______ ____
ROOT
ATOM      1  N   UNL     1     -30.719 -13.012  17.889  0.00  0.00    -0.305 N 
ATOM      2  C   UNL     1     -31.135 -12.580  16.576  0.00  0.00    +0.245 C 
ATOM      3  O   UNL     1     -31.822 -11.532  16.442  0.00  0.00    -0.270 OA
ATOM      4  H   UNL     1     -30.405 -14.004  17.979  0.00  0.00    +0.150 HD
ENDROOT
BRANCH   2   5
ATOM      5  C   UNL     1     -30.792 -13.372  15.370  0.00  0.00    +0.043 A 
ATOM      6  C   UNL     1     -29.777 -14.343  15.399  0.00  0.00    +0.031 A 
ATOM      7  C   UNL     1     -29.472 -15.062  14.241  0.00  0.00    +0.086 A 
ATOM      8  N   UNL     1     -30.149 -14.824  13.086  0.00  0.00    -0.329 N 
ATOM      9  C   UNL     1     -31.130 -13.882  13.022  0.00  0.00    +0.249 A 
ATOM     10  O   UNL     1     -31.739 -13.679  11.938  0.00  0.00    -0.268 OA
ATOM     11  C   UNL     1     -31.465 -13.139  14.159  0.00  0.00    +0.083 A 
ATOM     12  H   UNL     1     -29.903 -15.375  12.233  0.00  0.00    +0.168 HD
ENDBRANCH   2   5
BRANCH   1  14
ATOM     13  C   UNL     1     -32.242 -12.032  19.551  0.00  0.00    +0.032 C 
ATOM     14  C   UNL     1     -30.765 -12.180  19.114  0.00  0.00    +0.045 C 
ATOM     15  C   UNL     1     -29.986 -12.909  20.256  0.00  0.00    +0.026 C 
ATOM     16  C   UNL     1     -28.448 -12.767  20.183  0.00  0.00    +0.002 C 
ATOM     17  C   UNL     1     -27.938 -12.230  18.843  0.00  0.00    +0.001 C 
ATOM     18  C   UNL     1     -28.608 -10.904  18.440  0.00  0.00    +0.017 C 
ATOM     19  C   UNL     1     -30.105 -10.785  18.845  0.00  0.00    +0.121 C 
BRANCH  19  20
ATOM     20  C   UNL     1     -30.279  -9.829  20.008  0.00  0.00    +0.310 C 
ATOM     21  O   UNL     1     -31.210  -8.980  19.985  0.00  0.00    -0.251 OA
BRANCH  20  22
ATOM     22  O   UNL     1     -29.437  -9.894  21.114  0.00  0.00    -0.480 OA
ATOM     23  H   UNL     1     -29.619 -10.544  21.869  0.00  0.00    +0.295 HD
ENDBRANCH  20  22
ENDBRANCH  19  20
ENDBRANCH   1  14
TORSDOF 4
ENDMDL
MODEL 6
REMARK VINA RESULT:    -3.873      3.754      5.200
REMARK INTER + INTRA:          -4.915
REMARK INTER:                  -4.759
REMARK INTRA:                  -0.156
REMARK UNBOUND:                -0.249
REMARK  Name = 
REMARK  5 active torsions:
REMARK  status: ('A' for Active; 'I' for Inactive)
REMARK    1  A    between atoms: C_1  and  C_2
REMARK    2  A    between atoms: C_2  and  N_11
REMARK    3  A    between atoms: C_7  and  C_8
REMARK    4  A    between atoms: C_8  and  O_10
REMARK    5  A    between atoms: C_12  and  C_14
REMARK                            x       y       z     vdW  Elec       q    Type
REMARK                         _______ _______ _______ _____ _____    ______ ____
ROOT
ATOM      1  N   UNL     1     -30.840 -11.621  18.599  0.00  0.00    -0.305 N 
ATOM      2  C   UNL     1     -29.503 -11.279  19.021  0.00  0.00    +0.245 C 
ATOM      3  O   UNL     1     -29.020 -10.148  18.743  0.00  0.00    -0.270 OA
ATOM      4  H   UNL     1     -31.088 -12.635  18.602  0.00  0.00    +0.150 HD
ENDROOT
BRANCH   2   5
ATOM      5  C   UNL     1     -28.664 -12.255  19.759  0.00  0.00    +0.043 A 
ATOM      6  C   UNL     1     -29.183 -12.996  20.835  0.00  0.00    +0.031 A 
ATOM      7  C   UNL     1     -28.362 -13.898  21.514  0.00  0.00    +0.086 A 
ATOM      8  N   UNL     1     -27.063 -14.059  21.144  0.00  0.00    -0.329 N 
ATOM      9  C   UNL     1     -26.527 -13.348  20.114  0.00  0.00    +0.249 A 
ATOM     10  O   UNL     1     -25.320 -13.513  19.794  0.00  0.00    -0.268 OA
ATOM     11  C   UNL     1     -27.316 -12.433  19.408  0.00  0.00    +0.083 A 
ATOM     12  H   UNL     1     -26.468 -14.740  21.668  0.00  0.00    +0.168 HD
ENDBRANCH   2   5
BRANCH   1  14
ATOM     13  C   UNL     1     -32.105  -9.605  19.215  0.00  0.00    +0.032 C 
ATOM     14  C   UNL     1     -31.851 -10.656  18.107  0.00  0.00    +0.045 C 
ATOM     15  C   UNL     1     -31.285  -9.918  16.852  0.00  0.00    +0.026 C 
ATOM     16  C   UNL     1     -31.372 -10.723  15.534  0.00  0.00    +0.002 C 
ATOM     17  C   UNL     1     -31.683 -12.209  15.735  0.00  0.00    +0.001 C 
ATOM     18  C   UNL     1     -32.949 -12.443  16.579  0.00  0.00    +0.017 C 
ATOM     19  C   UNL     1     -33.169 -11.407  17.718  0.00  0.00    +0.121 C 
BRANCH  19  20
ATOM     20  C   UNL     1     -34.297 -10.454  17.374  0.00  0.00    +0.310 C 
ATOM     21  O   UNL     1     -34.561 -10.208  16.167  0.00  0.00    -0.251 OA
BRANCH  20  22
ATOM     22  O   UNL     1     -35.062  -9.866  18.377  0.00  0.00    -0.480 OA
ATOM     23  H   UNL     1     -34.792  -8.979  18.784  0.00  0.00    +0.295 HD
ENDBRANCH  20  22
ENDBRANCH  19  20
ENDBRANCH   1  14
TORSDOF 4
ENDMDL
MODEL 7
REMARK VINA RESULT:    -3.852      3.383      4.450
REMARK INTER + INTRA:          -4.889
REMARK INTER:                  -4.811
REMARK INTRA:                  -0.078
REMARK UNBOUND:                -0.249
REMARK  Name = 
REMARK  5 active torsions:
REMARK  status: ('A' for Active; 'I' for Inactive)
REMARK    1  A    between atoms: C_1  and  C_2
REMARK    2  A    between atoms: C_2  and  N_11
REMARK    3  A    between atoms: C_7  and  C_8
REMARK    4  A    between atoms: C_8  and  O_10
REMARK    5  A    between atoms: C_12  and  C_14
REMARK                            x       y       z     vdW  Elec       q    Type
REMARK                         _______ _______ _______ _____ _____    ______ ____
ROOT
ATOM      1  N   UNL     1     -31.448 -11.897  17.092  0.00  0.00    -0.305 N 
ATOM      2  C   UNL     1     -31.478 -11.056  15.920  0.00  0.00    +0.245 C 
ATOM      3  O   UNL     1     -30.554 -10.223  15.715  0.00  0.00    -0.270 OA
ATOM      4  H   UNL     1     -32.347 -12.357  17.362  0.00  0.00    +0.150 HD
ENDROOT
BRANCH   2   5
ATOM      5  C   UNL     1     -32.603 -11.131  14.956  0.00  0.00    +0.043 A 
ATOM      6  C   UNL     1     -33.607 -10.149  14.928  0.00  0.00    +0.031 A 
ATOM      7  C   UNL     1     -34.657 -10.257  14.015  0.00  0.00    +0.086 A 
ATOM      8  N   UNL     1     -34.716 -11.310  13.156  0.00  0.00    -0.329 N 
ATOM      9  C   UNL     1     -33.765 -12.285  13.165  0.00  0.00    +0.249 A 
ATOM     10  O   UNL     1     -33.845 -13.252  12.361  0.00  0.00    -0.268 OA
ATOM     11  C   UNL     1     -32.696 -12.214  14.066  0.00  0.00    +0.083 A 
ATOM     12  H   UNL     1     -35.512 -11.370  12.482  0.00  0.00    +0.168 HD
ENDBRANCH   2   5
BRANCH   1  14
ATOM     13  C   UNL     1     -29.206 -12.902  17.171  0.00  0.00    +0.032 C 
ATOM     14  C   UNL     1     -30.269 -12.103  17.964  0.00  0.00    +0.045 C 
ATOM     15  C   UNL     1     -29.660 -10.713  18.336  0.00  0.00    +0.026 C 
ATOM     16  C   UNL     1     -30.400  -9.964  19.468  0.00  0.00    +0.002 C 
ATOM     17  C   UNL     1     -31.778 -10.545  19.798  0.00  0.00    +0.001 C 
ATOM     18  C   UNL     1     -31.729 -12.052  20.109  0.00  0.00    +0.017 C 
ATOM     19  C   UNL     1     -30.689 -12.852  19.273  0.00  0.00    +0.121 C 
BRANCH  19  20
ATOM     20  C   UNL     1     -29.497 -13.245  20.123  0.00  0.00    +0.310 C 
ATOM     21  O   UNL     1     -29.246 -12.607  21.180  0.00  0.00    -0.251 OA
BRANCH  20  22
ATOM     22  O   UNL     1     -28.689 -14.320  19.763  0.00  0.00    -0.480 OA
ATOM     23  H   UNL     1     -27.749 -14.171  19.418  0.00  0.00    +0.295 HD
ENDBRANCH  20  22
ENDBRANCH  19  20
ENDBRANCH   1  14
TORSDOF 4
ENDMDL
MODEL 8
REMARK VINA RESULT:    -3.850      2.782      3.783
REMARK INTER + INTRA:          -4.887
REMARK INTER:                  -4.644
REMARK INTRA:                  -0.242
REMARK UNBOUND:                -0.249
REMARK  Name = 
REMARK  5 active torsions:
REMARK  status: ('A' for Active; 'I' for Inactive)
REMARK    1  A    between atoms: C_1  and  C_2
REMARK    2  A    between atoms: C_2  and  N_11
REMARK    3  A    between atoms: C_7  and  C_8
REMARK    4  A    between atoms: C_8  and  O_10
REMARK    5  A    between atoms: C_12  and  C_14
REMARK                            x       y       z     vdW  Elec       q    Type
REMARK                         _______ _______ _______ _____ _____    ______ ____
ROOT
ATOM      1  N   UNL     1     -32.566 -11.617  16.754  0.00  0.00    -0.305 N 
ATOM      2  C   UNL     1     -32.851 -11.027  15.469  0.00  0.00    +0.245 C 
ATOM      3  O   UNL     1     -33.139  -9.802  15.384  0.00  0.00    -0.270 OA
ATOM      4  H   UNL     1     -32.609 -12.659  16.811  0.00  0.00    +0.150 HD
ENDROOT
BRANCH   2   5
ATOM      5  C   UNL     1     -32.841 -11.848  14.233  0.00  0.00    +0.043 A 
ATOM      6  C   UNL     1     -33.952 -11.886  13.374  0.00  0.00    +0.031 A 
ATOM      7  C   UNL     1     -33.913 -12.679  12.225  0.00  0.00    +0.086 A 
ATOM      8  N   UNL     1     -32.808 -13.418  11.938  0.00  0.00    -0.329 N 
ATOM      9  C   UNL     1     -31.720 -13.412  12.756  0.00  0.00    +0.249 A 
ATOM     10  O   UNL     1     -30.710 -14.109  12.468  0.00  0.00    -0.268 OA
ATOM     11  C   UNL     1     -31.719 -12.632  13.917  0.00  0.00    +0.083 A 
ATOM     12  H   UNL     1     -32.802 -14.003  11.072  0.00  0.00    +0.168 HD
ENDBRANCH   2   5
BRANCH   1  14
ATOM     13  C   UNL     1     -33.590 -10.178  18.464  0.00  0.00    +0.032 C 
ATOM     14  C   UNL     1     -32.282 -10.861  17.996  0.00  0.00    +0.045 C 
ATOM     15  C   UNL     1     -31.824 -11.858  19.108  0.00  0.00    +0.026 C 
ATOM     16  C   UNL     1     -30.346 -12.304  19.009  0.00  0.00    +0.002 C 
ATOM     17  C   UNL     1     -29.685 -11.964  17.670  0.00  0.00    +0.001 C 
ATOM     18  C   UNL     1     -29.810 -10.474  17.306  0.00  0.00    +0.017 C 
ATOM     19  C   UNL     1     -31.148  -9.811  17.741  0.00  0.00    +0.121 C 
BRANCH  19  20
ATOM     20  C   UNL     1     -30.937  -8.890  18.926  0.00  0.00    +0.310 C 
ATOM     21  O   UNL     1     -31.806  -8.022  19.206  0.00  0.00    -0.251 OA
BRANCH  20  22
ATOM     22  O   UNL     1     -29.804  -9.007  19.726  0.00  0.00    -0.480 OA
ATOM     23  H   UNL     1     -28.997  -9.533  19.412  0.00  0.00    +0.295 HD
ENDBRANCH  20  22
ENDBRANCH  19  20
ENDBRANCH   1  14
TORSDOF 4
ENDMDL
MODEL 9
REMARK VINA RESULT:    -3.723      3.355      4.874
REMARK INTER + INTRA:          -4.733
REMARK INTER:                  -4.516
REMARK INTRA:                  -0.217
REMARK UNBOUND:                -0.249
REMARK  Name = 
REMARK  5 active torsions:
REMARK  status: ('A' for Active; 'I' for Inactive)
REMARK    1  A    between atoms: C_1  and  C_2
REMARK    2  A    between atoms: C_2  and  N_11
REMARK    3  A    between atoms: C_7  and  C_8
REMARK    4  A    between atoms: C_8  and  O_10
REMARK    5  A    between atoms: C_12  and  C_14
REMARK                            x       y       z     vdW  Elec       q    Type
REMARK                         _______ _______ _______ _____ _____    ______ ____
ROOT
ATOM      1  N   UNL     1     -30.193 -11.073  17.714  0.00  0.00    -0.305 N 
ATOM      2  C   UNL     1     -30.501 -11.789  16.500  0.00  0.00    +0.245 C 
ATOM      3  O   UNL     1     -29.760 -12.735  16.117  0.00  0.00    -0.270 OA
ATOM      4  H   UNL     1     -30.655 -10.144  17.840  0.00  0.00    +0.150 HD
ENDROOT
BRANCH   2   5
ATOM      5  C   UNL     1     -31.669 -11.412  15.667  0.00  0.00    +0.043 A 
ATOM      6  C   UNL     1     -32.114 -12.235  14.619  0.00  0.00    +0.031 A 
ATOM      7  C   UNL     1     -33.211 -11.843  13.848  0.00  0.00    +0.086 A 
ATOM      8  N   UNL     1     -33.845 -10.667  14.103  0.00  0.00    -0.329 N 
ATOM      9  C   UNL     1     -33.431  -9.842  15.103  0.00  0.00    +0.249 A 
ATOM     10  O   UNL     1     -34.035  -8.756  15.316  0.00  0.00    -0.268 OA
ATOM     11  C   UNL     1     -32.336 -10.198  15.899  0.00  0.00    +0.083 A 
ATOM     12  H   UNL     1     -34.663 -10.395  13.512  0.00  0.00    +0.168 HD
ENDBRANCH   2   5
BRANCH   1  14
ATOM     13  C   UNL     1     -27.798 -11.287  18.224  0.00  0.00    +0.032 C 
ATOM     14  C   UNL     1     -29.235 -11.523  18.750  0.00  0.00    +0.045 C 
ATOM     15  C   UNL     1     -29.434 -10.662  20.038  0.00  0.00    +0.026 C 
ATOM     16  C   UNL     1     -30.630 -11.086  20.922  0.00  0.00    +0.002 C 
ATOM     17  C   UNL     1     -31.603 -12.045  20.229  0.00  0.00    +0.001 C 
ATOM     18  C   UNL     1     -30.903 -13.291  19.658  0.00  0.00    +0.017 C 
ATOM     19  C   UNL     1     -29.478 -13.032  19.091  0.00  0.00    +0.121 C 
BRANCH  19  20
ATOM     20  C   UNL     1     -28.417 -13.594  20.016  0.00  0.00    +0.310 C 
ATOM     21  O   UNL     1     -28.615 -13.606  21.260  0.00  0.00    -0.251 OA
BRANCH  20  22
ATOM     22  O   UNL     1     -27.234 -14.120  19.505  0.00  0.00    -0.480 OA
ATOM     23  H   UNL     1     -26.914 -15.042  19.778  0.00  0.00    +0.295 HD
ENDBRANCH  20  22
ENDBRANCH  19  20
ENDBRANCH   1  14
TORSDOF 4
ENDMDL
