MODEL 1
REMARK VINA RESULT:    -3.771      0.000      0.000
REMARK INTER + INTRA:          -5.270
REMARK INTER:                  -4.653
REMARK INTRA:                  -0.617
REMARK UNBOUND:                -0.617
REMARK  Name = 
REMARK  6 active torsions:
REMARK  status: ('A' for Active; 'I' for Inactive)
REMARK    1  A    between atoms: C_1  and  C_2
REMARK    2  A    between atoms: C_2  and  C_3
REMARK    3  A    between atoms: C_3  and  C_4
REMARK    4  A    between atoms: C_3  and  N_6
REMARK    5  A    between atoms: C_4  and  C_5
REMARK    6  A    between atoms: C_10  and  N_14
REMARK                            x       y       z     vdW  Elec       q    Type
REMARK                         _______ _______ _______ _____ _____    ______ ____
ROOT
ATOM      1  N   UNL     1     -31.261 -12.992  20.097  0.00  0.00    -0.311 N 
ATOM      2  C   UNL     1     -29.833 -13.094  20.169  0.00  0.00    +0.217 A 
ATOM      3  N   UNL     1     -29.042 -12.350  19.353  0.00  0.00    -0.221 NA
ATOM      4  C   UNL     1     -27.690 -12.439  19.413  0.00  0.00    +0.150 A 
ATOM      5  C   UNL     1     -27.078 -13.298  20.335  0.00  0.00    +0.184 A 
ATOM      6  C   UNL     1     -27.914 -14.084  21.157  0.00  0.00    +0.152 A 
ATOM      7  N   UNL     1     -27.387 -15.062  22.059  0.00  0.00    -0.341 N 
ATOM      8  N   UNL     1     -29.264 -13.953  21.055  0.00  0.00    -0.198 NA
ATOM      9  H   UNL     1     -31.827 -13.569  20.761  0.00  0.00    +0.149 HD
ATOM     10  H   UNL     1     -28.031 -15.569  22.706  0.00  0.00    +0.144 HD
ATOM     11  H   UNL     1     -26.396 -15.381  22.015  0.00  0.00    +0.144 HD
ENDROOT
BRANCH   5  12
ATOM     12  N   UNL     1     -25.645 -13.333  20.434  0.00  0.00    +0.061 N 
ATOM     13  O   UNL     1     -25.047 -13.930  21.519  0.00  0.00    -0.126 OA
ATOM     14  O   UNL     1     -24.938 -13.022  19.452  0.00  0.00    -0.126 OA
ENDBRANCH   5  12
BRANCH   1  15
ATOM     15  C   UNL     1     -31.939 -12.088  19.159  0.00  0.00    +0.073 C 
BRANCH  15  17
ATOM     16  C   UNL     1     -31.603 -12.677  16.691  0.00  0.00    +0.006 C 
ATOM     17  C   UNL     1     -32.458 -12.897  17.938  0.00  0.00    +0.019 C 
ENDBRANCH  15  17
BRANCH  15  18
ATOM     18  C   UNL     1     -33.078 -11.346  19.896  0.00  0.00    +0.019 C 
ATOM     19  C   UNL     1     -32.690 -10.897  21.304  0.00  0.00    +0.006 C 
ENDBRANCH  15  18
ENDBRANCH   1  15
TORSDOF 4
ENDMDL
MODEL 2
REMARK VINA RESULT:    -3.635      2.000      2.245
REMARK INTER + INTRA:          -5.102
REMARK INTER:                  -4.449
REMARK INTRA:                  -0.653
REMARK UNBOUND:                -0.617
REMARK  Name = 
REMARK  6 active torsions:
REMARK  status: ('A' for Active; 'I' for Inactive)
REMARK    1  A    between atoms: C_1  and  C_2
REMARK    2  A    between atoms: C_2  and  C_3
REMARK    3  A    between atoms: C_3  and  C_4
REMARK    4  A    between atoms: C_3  and  N_6
REMARK    5  A    between atoms: C_4  and  C_5
REMARK    6  A    between atoms: C_10  and  N_14
REMARK                            x       y       z     vdW  Elec       q    Type
REMARK                         _______ _______ _______ _____ _____    ______ ____
ROOT
ATOM      1  N   UNL     1     -30.649 -11.805  17.828  0.00  0.00    -0.311 N 
ATOM      2  C   UNL     1     -29.464 -12.209  18.526  0.00  0.00    +0.217 A 
ATOM      3  N   UNL     1     -28.241 -11.778  18.122  0.00  0.00    -0.221 NA
ATOM      4  C   UNL     1     -27.113 -12.154  18.775  0.00  0.00    +0.150 A 
ATOM      5  C   UNL     1     -27.190 -12.992  19.896  0.00  0.00    +0.184 A 
ATOM      6  C   UNL     1     -28.467 -13.452  20.285  0.00  0.00    +0.152 A 
ATOM      7  N   UNL     1     -28.641 -14.388  21.353  0.00  0.00    -0.341 N 
ATOM      8  N   UNL     1     -29.564 -13.041  19.594  0.00  0.00    -0.198 NA
ATOM      9  H   UNL     1     -31.570 -12.145  18.189  0.00  0.00    +0.149 HD
ATOM     10  H   UNL     1     -29.604 -14.646  21.663  0.00  0.00    +0.144 HD
ATOM     11  H   UNL     1     -27.843 -14.921  21.761  0.00  0.00    +0.144 HD
ENDROOT
BRANCH   5  12
ATOM     12  N   UNL     1     -25.995 -13.328  20.618  0.00  0.00    +0.061 N 
ATOM     13  O   UNL     1     -26.060 -13.598  21.965  0.00  0.00    -0.126 OA
ATOM     14  O   UNL     1     -24.939 -13.587  20.003  0.00  0.00    -0.126 OA
ENDBRANCH   5  12
BRANCH   1  15
ATOM     15  C   UNL     1     -30.611 -10.912  16.663  0.00  0.00    +0.073 C 
BRANCH  15  17
ATOM     16  C   UNL     1     -30.882 -12.855  15.019  0.00  0.00    +0.006 C 
ATOM     17  C   UNL     1     -31.451 -11.523  15.508  0.00  0.00    +0.019 C 
ENDBRANCH  15  17
BRANCH  15  18
ATOM     18  C   UNL     1     -31.116  -9.509  17.075  0.00  0.00    +0.019 C 
ATOM     19  C   UNL     1     -32.638  -9.382  17.029  0.00  0.00    +0.006 C 
ENDBRANCH  15  18
ENDBRANCH   1  15
TORSDOF 4
ENDMDL
MODEL 3
REMARK VINA RESULT:    -3.596      3.470      4.742
REMARK INTER + INTRA:          -5.055
REMARK INTER:                  -4.411
REMARK INTRA:                  -0.644
REMARK UNBOUND:                -0.617
REMARK  Name = 
REMARK  6 active torsions:
REMARK  status: ('A' for Active; 'I' for Inactive)
REMARK    1  A    between atoms: C_1  and  C_2
REMARK    2  A    between atoms: C_2  and  C_3
REMARK    3  A    between atoms: C_3  and  C_4
REMARK    4  A    between atoms: C_3  and  N_6
REMARK    5  A    between atoms: C_4  and  C_5
REMARK    6  A    between atoms: C_10  and  N_14
REMARK                            x       y       z     vdW  Elec       q    Type
REMARK                         _______ _______ _______ _____ _____    ______ ____
ROOT
ATOM      1  N   UNL     1     -31.721 -12.934  14.833  0.00  0.00    -0.311 N 
ATOM      2  C   UNL     1     -30.945 -12.488  15.953  0.00  0.00    +0.217 A 
ATOM      3  N   UNL     1     -30.687 -11.167  16.137  0.00  0.00    -0.221 NA
ATOM      4  C   UNL     1     -29.955 -10.734  17.193  0.00  0.00    +0.150 A 
ATOM      5  C   UNL     1     -29.456 -11.649  18.131  0.00  0.00    +0.184 A 
ATOM      6  C   UNL     1     -29.710 -13.021  17.910  0.00  0.00    +0.152 A 
ATOM      7  N   UNL     1     -29.161 -14.038  18.753  0.00  0.00    -0.341 N 
ATOM      8  N   UNL     1     -30.453 -13.397  16.834  0.00  0.00    -0.198 NA
ATOM      9  H   UNL     1     -31.910 -13.958  14.746  0.00  0.00    +0.149 HD
ATOM     10  H   UNL     1     -29.434 -15.034  18.606  0.00  0.00    +0.144 HD
ATOM     11  H   UNL     1     -28.401 -13.840  19.439  0.00  0.00    +0.144 HD
ENDROOT
BRANCH   5  12
ATOM     12  N   UNL     1     -28.739 -11.172  19.280  0.00  0.00    +0.061 N 
ATOM     13  O   UNL     1     -29.376 -10.372  20.202  0.00  0.00    -0.126 OA
ATOM     14  O   UNL     1     -27.619 -11.643  19.565  0.00  0.00    -0.126 OA
ENDBRANCH   5  12
BRANCH   1  15
ATOM     15  C   UNL     1     -32.278 -12.004  13.842  0.00  0.00    +0.073 C 
BRANCH  15  17
ATOM     16  C   UNL     1     -33.551 -13.148  11.938  0.00  0.00    +0.006 C 
ATOM     17  C   UNL     1     -32.195 -12.639  12.426  0.00  0.00    +0.019 C 
ENDBRANCH  15  17
BRANCH  15  18
ATOM     18  C   UNL     1     -33.729 -11.643  14.236  0.00  0.00    +0.019 C 
ATOM     19  C   UNL     1     -33.894 -10.179  14.642  0.00  0.00    +0.006 C 
ENDBRANCH  15  18
ENDBRANCH   1  15
TORSDOF 4
ENDMDL
MODEL 4
REMARK VINA RESULT:    -3.542      3.684      5.392
REMARK INTER + INTRA:          -4.988
REMARK INTER:                  -4.547
REMARK INTRA:                  -0.441
REMARK UNBOUND:                -0.617
REMARK  Name = 
REMARK  6 active torsions:
REMARK  status: ('A' for Active; 'I' for Inactive)
REMARK    1  A    between atoms: C_1  and  C_2
REMARK    2  A    between atoms: C_2  and  C_3
REMARK    3  A    between atoms: C_3  and  C_4
REMARK    4  A    between atoms: C_3  and  N_6
REMARK    5  A    between atoms: C_4  and  C_5
REMARK    6  A    between atoms: C_10  and  N_14
REMARK                            x       y       z     vdW  Elec       q    Type
REMARK                         _______ _______ _______ _____ _____    ______ ____
ROOT
ATOM      1  N   UNL     1     -29.109 -14.129  14.932  0.00  0.00    -0.311 N 
ATOM      2  C   UNL     1     -29.367 -13.882  16.320  0.00  0.00    +0.217 A 
ATOM      3  N   UNL     1     -30.606 -14.079  16.842  0.00  0.00    -0.221 NA
ATOM      4  C   UNL     1     -30.860 -13.848  18.154  0.00  0.00    +0.150 A 
ATOM      5  C   UNL     1     -29.838 -13.409  19.007  0.00  0.00    +0.184 A 
ATOM      6  C   UNL     1     -28.563 -13.183  18.442  0.00  0.00    +0.152 A 
ATOM      7  N   UNL     1     -27.482 -12.641  19.207  0.00  0.00    -0.341 N 
ATOM      8  N   UNL     1     -28.365 -13.433  17.120  0.00  0.00    -0.198 NA
ATOM      9  H   UNL     1     -28.135 -13.983  14.582  0.00  0.00    +0.149 HD
ATOM     10  H   UNL     1     -26.534 -12.560  18.778  0.00  0.00    +0.144 HD
ATOM     11  H   UNL     1     -27.627 -12.208  20.144  0.00  0.00    +0.144 HD
ENDROOT
BRANCH   5  12
ATOM     12  N   UNL     1     -30.105 -13.233  20.407  0.00  0.00    +0.061 N 
ATOM     13  O   UNL     1     -29.121 -13.500  21.332  0.00  0.00    -0.126 OA
ATOM     14  O   UNL     1     -31.138 -12.641  20.782  0.00  0.00    -0.126 OA
ENDBRANCH   5  12
BRANCH   1  15
ATOM     15  C   UNL     1     -30.149 -14.609  14.012  0.00  0.00    +0.073 C 
BRANCH  15  17
ATOM     16  C   UNL     1     -31.634 -13.380  12.329  0.00  0.00    +0.006 C 
ATOM     17  C   UNL     1     -31.207 -13.494  13.792  0.00  0.00    +0.019 C 
ENDBRANCH  15  17
BRANCH  15  18
ATOM     18  C   UNL     1     -29.491 -15.062  12.688  0.00  0.00    +0.019 C 
ATOM     19  C   UNL     1     -27.971 -14.911  12.689  0.00  0.00    +0.006 C 
ENDBRANCH  15  18
ENDBRANCH   1  15
TORSDOF 4
ENDMDL
MODEL 5
REMARK VINA RESULT:    -3.531      3.458      5.027
REMARK INTER + INTRA:          -4.974
REMARK INTER:                  -4.334
REMARK INTRA:                  -0.640
REMARK UNBOUND:                -0.617
REMARK  Name = 
REMARK  6 active torsions:
REMARK  status: ('A' for Active; 'I' for Inactive)
REMARK    1  A    between atoms: C_1  and  C_2
REMARK    2  A    between atoms: C_2  and  C_3
REMARK    3  A    between atoms: C_3  and  C_4
REMARK    4  A    between atoms: C_3  and  N_6
REMARK    5  A    between atoms: C_4  and  C_5
REMARK    6  A    between atoms: C_10  and  N_14
REMARK                            x       y       z     vdW  Elec       q    Type
REMARK                         _______ _______ _______ _____ _____    ______ ____
ROOT
ATOM      1  N   UNL     1     -30.959 -14.143  15.427  0.00  0.00    -0.311 N 
ATOM      2  C   UNL     1     -30.614 -13.405  16.606  0.00  0.00    +0.217 A 
ATOM      3  N   UNL     1     -30.049 -12.172  16.512  0.00  0.00    -0.221 NA
ATOM      4  C   UNL     1     -29.718 -11.466  17.622  0.00  0.00    +0.150 A 
ATOM      5  C   UNL     1     -29.966 -11.992  18.896  0.00  0.00    +0.184 A 
ATOM      6  C   UNL     1     -30.528 -13.285  18.975  0.00  0.00    +0.152 A 
ATOM      7  N   UNL     1     -30.726 -13.949  20.227  0.00  0.00    -0.341 N 
ATOM      8  N   UNL     1     -30.841 -13.948  17.830  0.00  0.00    -0.198 NA
ATOM      9  H   UNL     1     -31.411 -15.078  15.550  0.00  0.00    +0.149 HD
ATOM     10  H   UNL     1     -31.215 -14.871  20.252  0.00  0.00    +0.144 HD
ATOM     11  H   UNL     1     -30.294 -13.607  21.112  0.00  0.00    +0.144 HD
ENDROOT
BRANCH   5  12
ATOM     12  N   UNL     1     -29.672 -11.205  20.062  0.00  0.00    +0.061 N 
ATOM     13  O   UNL     1     -29.145 -11.807  21.181  0.00  0.00    -0.126 OA
ATOM     14  O   UNL     1     -29.686  -9.958  20.000  0.00  0.00    -0.126 OA
ENDBRANCH   5  12
BRANCH   1  15
ATOM     15  C   UNL     1     -30.735 -13.616  14.074  0.00  0.00    +0.073 C 
BRANCH  15  17
ATOM     16  C   UNL     1     -28.670 -15.059  13.620  0.00  0.00    +0.006 C 
ATOM     17  C   UNL     1     -30.095 -14.717  13.185  0.00  0.00    +0.019 C 
ENDBRANCH  15  17
BRANCH  15  18
ATOM     18  C   UNL     1     -32.074 -13.102  13.496  0.00  0.00    +0.019 C 
ATOM     19  C   UNL     1     -32.220 -13.362  11.997  0.00  0.00    +0.006 C 
ENDBRANCH  15  18
ENDBRANCH   1  15
TORSDOF 4
ENDMDL
MODEL 6
REMARK VINA RESULT:    -3.454      5.039      6.772
REMARK INTER + INTRA:          -4.879
REMARK INTER:                  -4.589
REMARK INTRA:                  -0.290
REMARK UNBOUND:                -0.617
REMARK  Name = 
REMARK  6 active torsions:
REMARK  status: ('A' for Active; 'I' for Inactive)
REMARK    1  A    between atoms: C_1  and  C_2
REMARK    2  A    between atoms: C_2  and  C_3
REMARK    3  A    between atoms: C_3  and  C_4
REMARK    4  A    between atoms: C_3  and  N_6
REMARK    5  A    between atoms: C_4  and  C_5
REMARK    6  A    between atoms: C_10  and  N_14
REMARK                            x       y       z     vdW  Elec       q    Type
REMARK                         _______ _______ _______ _____ _____    ______ ____
ROOT
ATOM      1  N   UNL     1     -32.099 -11.858  14.117  0.00  0.00    -0.311 N 
ATOM      2  C   UNL     1     -31.762 -11.114  15.295  0.00  0.00    +0.217 A 
ATOM      3  N   UNL     1     -30.649 -11.418  16.013  0.00  0.00    -0.221 NA
ATOM      4  C   UNL     1     -30.322 -10.720  17.129  0.00  0.00    +0.150 A 
ATOM      5  C   UNL     1     -31.124  -9.655  17.559  0.00  0.00    +0.184 A 
ATOM      6  C   UNL     1     -32.292  -9.371  16.817  0.00  0.00    +0.152 A 
ATOM      7  N   UNL     1     -33.226  -8.370  17.231  0.00  0.00    -0.341 N 
ATOM      8  N   UNL     1     -32.570 -10.103  15.705  0.00  0.00    -0.198 NA
ATOM      9  H   UNL     1     -32.954 -11.574  13.586  0.00  0.00    +0.149 HD
ATOM     10  H   UNL     1     -34.037  -8.134  16.617  0.00  0.00    +0.144 HD
ATOM     11  H   UNL     1     -33.201  -7.946  18.183  0.00  0.00    +0.144 HD
ENDROOT
BRANCH   5  12
ATOM     12  N   UNL     1     -30.729  -8.883  18.704  0.00  0.00    +0.061 N 
ATOM     13  O   UNL     1     -31.601  -7.967  19.247  0.00  0.00    -0.126 OA
ATOM     14  O   UNL     1     -29.696  -9.180  19.339  0.00  0.00    -0.126 OA
ENDBRANCH   5  12
BRANCH   1  15
ATOM     15  C   UNL     1     -31.272 -12.967  13.623  0.00  0.00    +0.073 C 
BRANCH  15  17
ATOM     16  C   UNL     1     -29.859 -14.776  14.756  0.00  0.00    +0.006 C 
ATOM     17  C   UNL     1     -31.228 -14.100  14.685  0.00  0.00    +0.019 C 
ENDBRANCH  15  17
BRANCH  15  18
ATOM     18  C   UNL     1     -31.830 -13.457  12.267  0.00  0.00    +0.019 C 
ATOM     19  C   UNL     1     -33.337 -13.247  12.125  0.00  0.00    +0.006 C 
ENDBRANCH  15  18
ENDBRANCH   1  15
TORSDOF 4
ENDMDL
MODEL 7
REMARK VINA RESULT:    -3.446      3.550      4.806
REMARK INTER + INTRA:          -4.869
REMARK INTER:                  -4.229
REMARK INTRA:                  -0.640
REMARK UNBOUND:                -0.617
REMARK  Name = 
REMARK  6 active torsions:
REMARK  status: ('A' for Active; 'I' for Inactive)
REMARK    1  A    between atoms: C_1  and  C_2
REMARK    2  A    between atoms: C_2  and  C_3
REMARK    3  A    between atoms: C_3  and  C_4
REMARK    4  A    between atoms: C_3  and  N_6
REMARK    5  A    between atoms: C_4  and  C_5
REMARK    6  A    between atoms: C_10  and  N_14
REMARK                            x       y       z     vdW  Elec       q    Type
REMARK                         _______ _______ _______ _____ _____    ______ ____
ROOT
ATOM      1  N   UNL     1     -33.129 -12.588  14.981  0.00  0.00    -0.311 N 
ATOM      2  C   UNL     1     -31.974 -12.517  15.827  0.00  0.00    +0.217 A 
ATOM      3  N   UNL     1     -31.283 -11.355  15.960  0.00  0.00    -0.221 NA
ATOM      4  C   UNL     1     -30.189 -11.276  16.758  0.00  0.00    +0.150 A 
ATOM      5  C   UNL     1     -29.755 -12.399  17.476  0.00  0.00    +0.184 A 
ATOM      6  C   UNL     1     -30.468 -13.605  17.304  0.00  0.00    +0.152 A 
ATOM      7  N   UNL     1     -30.045 -14.828  17.914  0.00  0.00    -0.341 N 
ATOM      8  N   UNL     1     -31.559 -13.625  16.492  0.00  0.00    -0.198 NA
ATOM      9  H   UNL     1     -33.641 -13.499  14.927  0.00  0.00    +0.149 HD
ATOM     10  H   UNL     1     -30.640 -15.682  17.828  0.00  0.00    +0.144 HD
ATOM     11  H   UNL     1     -29.102 -14.938  18.344  0.00  0.00    +0.144 HD
ENDROOT
BRANCH   5  12
ATOM     12  N   UNL     1     -28.635 -12.284  18.368  0.00  0.00    +0.061 N 
ATOM     13  O   UNL     1     -27.694 -13.286  18.420  0.00  0.00    -0.126 OA
ATOM     14  O   UNL     1     -28.391 -11.199  18.937  0.00  0.00    -0.126 OA
ENDBRANCH   5  12
BRANCH   1  15
ATOM     15  C   UNL     1     -33.628 -11.429  14.229  0.00  0.00    +0.073 C 
BRANCH  15  17
ATOM     16  C   UNL     1     -33.528 -12.991  12.204  0.00  0.00    +0.006 C 
ATOM     17  C   UNL     1     -34.330 -11.911  12.930  0.00  0.00    +0.019 C 
ENDBRANCH  15  17
BRANCH  15  18
ATOM     18  C   UNL     1     -34.572 -10.601  15.132  0.00  0.00    +0.019 C 
ATOM     19  C   UNL     1     -34.169  -9.130  15.233  0.00  0.00    +0.006 C 
ENDBRANCH  15  18
ENDBRANCH   1  15
TORSDOF 4
ENDMDL
MODEL 8
REMARK VINA RESULT:    -3.376      1.978      2.661
REMARK INTER + INTRA:          -4.783
REMARK INTER:                  -4.138
REMARK INTRA:                  -0.645
REMARK UNBOUND:                -0.617
REMARK  Name = 
REMARK  6 active torsions:
REMARK  status: ('A' for Active; 'I' for Inactive)
REMARK    1  A    between atoms: C_1  and  C_2
REMARK    2  A    between atoms: C_2  and  C_3
REMARK    3  A    between atoms: C_3  and  C_4
REMARK    4  A    between atoms: C_3  and  N_6
REMARK    5  A    between atoms: C_4  and  C_5
REMARK    6  A    between atoms: C_10  and  N_14
REMARK                            x       y       z     vdW  Elec       q    Type
REMARK                         _______ _______ _______ _____ _____    ______ ____
ROOT
ATOM      1  N   UNL     1     -32.382 -11.519  20.547  0.00  0.00    -0.311 N 
ATOM      2  C   UNL     1     -31.023 -11.650  20.110  0.00  0.00    +0.217 A 
ATOM      3  N   UNL     1     -30.377 -10.604  19.530  0.00  0.00    -0.221 NA
ATOM      4  C   UNL     1     -29.091 -10.717  19.113  0.00  0.00    +0.150 A 
ATOM      5  C   UNL     1     -28.394 -11.921  19.286  0.00  0.00    +0.184 A 
ATOM      6  C   UNL     1     -29.089 -13.005  19.865  0.00  0.00    +0.152 A 
ATOM      7  N   UNL     1     -28.497 -14.302  19.992  0.00  0.00    -0.341 N 
ATOM      8  N   UNL     1     -30.377 -12.834  20.266  0.00  0.00    -0.198 NA
ATOM      9  H   UNL     1     -32.829 -12.345  21.006  0.00  0.00    +0.149 HD
ATOM     10  H   UNL     1     -29.012 -15.058  20.495  0.00  0.00    +0.144 HD
ATOM     11  H   UNL     1     -27.618 -14.562  19.497  0.00  0.00    +0.144 HD
ENDROOT
BRANCH   5  12
ATOM     12  N   UNL     1     -27.013 -12.005  18.901  0.00  0.00    +0.061 N 
ATOM     13  O   UNL     1     -26.448 -11.002  18.148  0.00  0.00    -0.126 OA
ATOM     14  O   UNL     1     -26.266 -12.863  19.417  0.00  0.00    -0.126 OA
ENDBRANCH   5  12
BRANCH   1  15
ATOM     15  C   UNL     1     -33.138 -10.269  20.403  0.00  0.00    +0.073 C 
BRANCH  15  17
ATOM     16  C   UNL     1     -33.278  -9.026  18.169  0.00  0.00    +0.006 C 
ATOM     17  C   UNL     1     -33.786 -10.210  18.992  0.00  0.00    +0.019 C 
ENDBRANCH  15  17
BRANCH  15  18
ATOM     18  C   UNL     1     -34.189 -10.172  21.533  0.00  0.00    +0.019 C 
ATOM     19  C   UNL     1     -34.549  -8.733  21.898  0.00  0.00    +0.006 C 
ENDBRANCH  15  18
ENDBRANCH   1  15
TORSDOF 4
ENDMDL
MODEL 9
REMARK VINA RESULT:    -3.304      5.522      7.158
REMARK INTER + INTRA:          -4.693
REMARK INTER:                  -4.044
REMARK INTRA:                  -0.650
REMARK UNBOUND:                -0.617
REMARK  Name = 
REMARK  6 active torsions:
REMARK  status: ('A' for Active; 'I' for Inactive)
REMARK    1  A    between atoms: C_1  and  C_2
REMARK    2  A    between atoms: C_2  and  C_3
REMARK    3  A    between atoms: C_3  and  C_4
REMARK    4  A    between atoms: C_3  and  N_6
REMARK    5  A    between atoms: C_4  and  C_5
REMARK    6  A    between atoms: C_10  and  N_14
REMARK                            x       y       z     vdW  Elec       q    Type
REMARK                         _______ _______ _______ _____ _____    ______ ____
ROOT
ATOM      1  N   UNL     1     -31.716 -11.894  13.921  0.00  0.00    -0.311 N 
ATOM      2  C   UNL     1     -32.112 -11.587  15.264  0.00  0.00    +0.217 A 
ATOM      3  N   UNL     1     -32.600 -12.555  16.082  0.00  0.00    -0.221 NA
ATOM      4  C   UNL     1     -32.978 -12.274  17.354  0.00  0.00    +0.150 A 
ATOM      5  C   UNL     1     -32.859 -10.972  17.857  0.00  0.00    +0.184 A 
ATOM      6  C   UNL     1     -32.375  -9.972  16.985  0.00  0.00    +0.152 A 
ATOM      7  N   UNL     1     -32.311  -8.596  17.372  0.00  0.00    -0.341 N 
ATOM      8  N   UNL     1     -32.010 -10.311  15.719  0.00  0.00    -0.198 NA
ATOM      9  H   UNL     1     -31.326 -11.120  13.337  0.00  0.00    +0.149 HD
ATOM     10  H   UNL     1     -31.876  -7.898  16.729  0.00  0.00    +0.144 HD
ATOM     11  H   UNL     1     -32.791  -8.236  18.224  0.00  0.00    +0.144 HD
ENDROOT
BRANCH   5  12
ATOM     12  N   UNL     1     -33.200 -10.703  19.227  0.00  0.00    +0.061 N 
ATOM     13  O   UNL     1     -33.868  -9.545  19.553  0.00  0.00    -0.126 OA
ATOM     14  O   UNL     1     -33.090 -11.597  20.091  0.00  0.00    -0.126 OA
ENDBRANCH   5  12
BRANCH   1  15
ATOM     15  C   UNL     1     -31.805 -13.251  13.365  0.00  0.00    +0.073 C 
BRANCH  15  17
ATOM     16  C   UNL     1     -33.814 -12.558  11.938  0.00  0.00    +0.006 C 
ATOM     17  C   UNL     1     -32.423 -13.191  11.941  0.00  0.00    +0.019 C 
ENDBRANCH  15  17
BRANCH  15  18
ATOM     18  C   UNL     1     -30.402 -13.900  13.368  0.00  0.00    +0.019 C 
ATOM     19  C   UNL     1     -30.151 -14.783  14.589  0.00  0.00    +0.006 C 
ENDBRANCH  15  18
ENDBRANCH   1  15
TORSDOF 4
ENDMDL
