MODEL 1
REMARK VINA RESULT:    -4.715      0.000      0.000
REMARK INTER + INTRA:          -9.508
REMARK INTER:                  -7.333
REMARK INTRA:                  -2.175
REMARK UNBOUND:                -2.175
REMARK  Name = 
REMARK  11 active torsions:
REMARK  status: ('A' for Active; 'I' for Inactive)
REMARK    1  A    between atoms: C_1  and  C_2
REMARK    2  A    between atoms: C_2  and  O_3
REMARK    3  A    between atoms: O_3  and  C_4
REMARK    4  A    between atoms: C_9  and  O_10
REMARK    5  A    between atoms: O_10  and  C_11
REMARK    6  A    between atoms: C_11  and  C_12
REMARK    7  A    between atoms: N_14  and  C_15
REMARK    8  A    between atoms: C_15  and  C_16
REMARK    9  A    between atoms: C_15  and  C_20
REMARK   10  A    between atoms: C_16  and  C_17
REMARK   11  A    between atoms: C_17  and  O_19
REMARK                            x       y       z     vdW  Elec       q    Type
REMARK                         _______ _______ _______ _____ _____    ______ ____
ROOT
ATOM      1  C   UNL     1     -31.370  -9.911  16.500  0.00  0.00    +0.251 C 
ATOM      2  O   UNL     1     -30.310  -9.415  16.030  0.00  0.00    -0.272 OA
ATOM      3  N   UNL     1     -31.537 -10.057  17.920  0.00  0.00    -0.305 N 
ATOM      4  H   UNL     1     -32.444 -10.436  18.281  0.00  0.00    +0.149 HD
ENDROOT
BRANCH   1   5
ATOM      5  C   UNL     1     -32.447 -10.349  15.560  0.00  0.00    +0.324 C 
BRANCH   5   6
ATOM      6  O   UNL     1     -32.667 -11.749  15.723  0.00  0.00    -0.479 OA
BRANCH   6  12
ATOM      7  C   UNL     1     -31.152 -13.057  14.376  0.00  0.00    +0.162 A 
ATOM      8  C   UNL     1     -30.151 -14.043  14.266  0.00  0.00    +0.049 A 
ATOM      9  C   UNL     1     -29.666 -14.684  15.410  0.00  0.00    +0.004 A 
ATOM     10  C   UNL     1     -30.171 -14.354  16.668  0.00  0.00    +0.004 A 
ATOM     11  C   UNL     1     -31.168 -13.383  16.789  0.00  0.00    +0.049 A 
ATOM     12  C   UNL     1     -31.665 -12.729  15.644  0.00  0.00    +0.163 A 
BRANCH   7  13
ATOM     13  O   UNL     1     -31.672 -12.382  13.255  0.00  0.00    -0.489 OA
BRANCH  13  15
ATOM     14  C   UNL     1     -33.823 -12.865  12.226  0.00  0.00    +0.048 C 
ATOM     15  C   UNL     1     -32.306 -12.996  12.131  0.00  0.00    +0.226 C 
ENDBRANCH  13  15
ENDBRANCH   7  13
ENDBRANCH   6  12
ENDBRANCH   5   6
ENDBRANCH   1   5
BRANCH   3  16
ATOM     16  C   UNL     1     -30.505  -9.649  18.883  0.00  0.00    +0.114 C 
BRANCH  16  17
ATOM     17  C   UNL     1     -29.537 -10.804  19.141  0.00  0.00    -0.027 A 
ATOM     18  C   UNL     1     -28.350 -11.008  18.401  0.00  0.00    +0.005 A 
ATOM     19  C   UNL     1     -27.521 -12.101  18.674  0.00  0.00    +0.000 A 
ATOM     20  C   UNL     1     -27.863 -13.011  19.677  0.00  0.00    +0.000 A 
ATOM     21  C   UNL     1     -29.040 -12.834  20.407  0.00  0.00    +0.000 A 
ATOM     22  C   UNL     1     -29.874 -11.744  20.137  0.00  0.00    +0.005 A 
ENDBRANCH  16  17
BRANCH  16  23
ATOM     23  C   UNL     1     -31.165  -9.018  20.134  0.00  0.00    +0.147 C 
BRANCH  23  24
ATOM     24  C   UNL     1     -30.907  -7.543  20.290  0.00  0.00    +0.307 C 
ATOM     25  O   UNL     1     -31.795  -6.719  19.940  0.00  0.00    -0.251 OA
BRANCH  24  26
ATOM     26  O   UNL     1     -29.688  -7.075  20.772  0.00  0.00    -0.481 OA
ATOM     27  H   UNL     1     -28.976  -6.726  20.141  0.00  0.00    +0.295 HD
ENDBRANCH  24  26
ENDBRANCH  23  24
ENDBRANCH  16  23
ENDBRANCH   3  16
TORSDOF 10
ENDMDL
MODEL 2
REMARK VINA RESULT:    -4.703      2.434      4.700
REMARK INTER + INTRA:          -9.489
REMARK INTER:                  -6.854
REMARK INTRA:                  -2.635
REMARK UNBOUND:                -2.175
REMARK  Name = 
REMARK  11 active torsions:
REMARK  status: ('A' for Active; 'I' for Inactive)
REMARK    1  A    between atoms: C_1  and  C_2
REMARK    2  A    between atoms: C_2  and  O_3
REMARK    3  A    between atoms: O_3  and  C_4
REMARK    4  A    between atoms: C_9  and  O_10
REMARK    5  A    between atoms: O_10  and  C_11
REMARK    6  A    between atoms: C_11  and  C_12
REMARK    7  A    between atoms: N_14  and  C_15
REMARK    8  A    between atoms: C_15  and  C_16
REMARK    9  A    between atoms: C_15  and  C_20
REMARK   10  A    between atoms: C_16  and  C_17
REMARK   11  A    between atoms: C_17  and  O_19
REMARK                            x       y       z     vdW  Elec       q    Type
REMARK                         _______ _______ _______ _____ _____    ______ ____
ROOT
ATOM      1  C   UNL     1     -30.304 -14.135  17.247  0.00  0.00    +0.251 C 
ATOM      2  O   UNL     1     -31.337 -14.748  17.629  0.00  0.00    -0.272 OA
ATOM      3  N   UNL     1     -29.544 -13.341  18.173  0.00  0.00    -0.305 N 
ATOM      4  H   UNL     1     -28.670 -12.875  17.834  0.00  0.00    +0.149 HD
ENDROOT
BRANCH   1   5
ATOM      5  C   UNL     1     -29.884 -14.240  15.815  0.00  0.00    +0.324 C 
BRANCH   5   6
ATOM      6  O   UNL     1     -30.236 -13.036  15.136  0.00  0.00    -0.479 OA
BRANCH   6  12
ATOM      7  C   UNL     1     -32.419 -12.115  14.677  0.00  0.00    +0.162 A 
ATOM      8  C   UNL     1     -33.533 -11.971  13.825  0.00  0.00    +0.049 A 
ATOM      9  C   UNL     1     -33.550 -12.599  12.576  0.00  0.00    +0.004 A 
ATOM     10  C   UNL     1     -32.465 -13.375  12.165  0.00  0.00    +0.004 A 
ATOM     11  C   UNL     1     -31.359 -13.531  13.003  0.00  0.00    +0.049 A 
ATOM     12  C   UNL     1     -31.329 -12.903  14.264  0.00  0.00    +0.163 A 
BRANCH   7  13
ATOM     13  O   UNL     1     -32.353 -11.503  15.942  0.00  0.00    -0.489 OA
BRANCH  13  15
ATOM     14  C   UNL     1     -30.709  -9.757  16.358  0.00  0.00    +0.048 C 
ATOM     15  C   UNL     1     -32.185 -10.104  16.185  0.00  0.00    +0.226 C 
ENDBRANCH  13  15
ENDBRANCH   7  13
ENDBRANCH   6  12
ENDBRANCH   5   6
ENDBRANCH   1   5
BRANCH   3  16
ATOM     16  C   UNL     1     -29.921 -13.201  19.586  0.00  0.00    +0.114 C 
BRANCH  16  17
ATOM     17  C   UNL     1     -30.729 -11.919  19.792  0.00  0.00    -0.027 A 
ATOM     18  C   UNL     1     -30.141 -10.652  20.014  0.00  0.00    +0.005 A 
ATOM     19  C   UNL     1     -30.941  -9.523  20.220  0.00  0.00    +0.000 A 
ATOM     20  C   UNL     1     -32.333  -9.638  20.219  0.00  0.00    +0.000 A 
ATOM     21  C   UNL     1     -32.930 -10.884  20.018  0.00  0.00    +0.000 A 
ATOM     22  C   UNL     1     -32.136 -12.016  19.813  0.00  0.00    +0.005 A 
ENDBRANCH  16  17
BRANCH  16  23
ATOM     23  C   UNL     1     -28.674 -13.375  20.488  0.00  0.00    +0.147 C 
BRANCH  23  24
ATOM     24  C   UNL     1     -27.376 -13.480  19.733  0.00  0.00    +0.307 C 
ATOM     25  O   UNL     1     -27.024 -12.536  18.974  0.00  0.00    -0.251 OA
BRANCH  24  26
ATOM     26  O   UNL     1     -26.581 -14.619  19.826  0.00  0.00    -0.481 OA
ATOM     27  H   UNL     1     -25.799 -14.762  19.198  0.00  0.00    +0.295 HD
ENDBRANCH  24  26
ENDBRANCH  23  24
ENDBRANCH  16  23
ENDBRANCH   3  16
TORSDOF 10
ENDMDL
MODEL 3
REMARK VINA RESULT:    -4.614      1.762      6.564
REMARK INTER + INTRA:          -9.351
REMARK INTER:                  -7.581
REMARK INTRA:                  -1.770
REMARK UNBOUND:                -2.175
REMARK  Name = 
REMARK  11 active torsions:
REMARK  status: ('A' for Active; 'I' for Inactive)
REMARK    1  A    between atoms: C_1  and  C_2
REMARK    2  A    between atoms: C_2  and  O_3
REMARK    3  A    between atoms: O_3  and  C_4
REMARK    4  A    between atoms: C_9  and  O_10
REMARK    5  A    between atoms: O_10  and  C_11
REMARK    6  A    between atoms: C_11  and  C_12
REMARK    7  A    between atoms: N_14  and  C_15
REMARK    8  A    between atoms: C_15  and  C_16
REMARK    9  A    between atoms: C_15  and  C_20
REMARK   10  A    between atoms: C_16  and  C_17
REMARK   11  A    between atoms: C_17  and  O_19
REMARK                            x       y       z     vdW  Elec       q    Type
REMARK                         _______ _______ _______ _____ _____    ______ ____
ROOT
ATOM      1  C   UNL     1     -31.418 -10.048  16.447  0.00  0.00    +0.251 C 
ATOM      2  O   UNL     1     -30.482  -9.577  15.746  0.00  0.00    -0.272 OA
ATOM      3  N   UNL     1     -31.796 -11.429  16.324  0.00  0.00    -0.305 N 
ATOM      4  H   UNL     1     -32.551 -11.799  16.947  0.00  0.00    +0.149 HD
ENDROOT
BRANCH   1   5
ATOM      5  C   UNL     1     -32.133  -9.148  17.404  0.00  0.00    +0.324 C 
BRANCH   5   6
ATOM      6  O   UNL     1     -31.271  -8.854  18.502  0.00  0.00    -0.479 OA
BRANCH   6  12
ATOM      7  C   UNL     1     -30.032 -10.282  20.001  0.00  0.00    +0.162 A 
ATOM      8  C   UNL     1     -29.956 -11.038  21.189  0.00  0.00    +0.049 A 
ATOM      9  C   UNL     1     -31.049 -11.094  22.059  0.00  0.00    +0.004 A 
ATOM     10  C   UNL     1     -32.224 -10.405  21.757  0.00  0.00    +0.004 A 
ATOM     11  C   UNL     1     -32.314  -9.658  20.580  0.00  0.00    +0.049 A 
ATOM     12  C   UNL     1     -31.219  -9.593  19.695  0.00  0.00    +0.163 A 
BRANCH   7  13
ATOM     13  O   UNL     1     -28.960 -10.193  19.094  0.00  0.00    -0.489 OA
BRANCH  13  15
ATOM     14  C   UNL     1     -27.335 -11.987  18.842  0.00  0.00    +0.048 C 
ATOM     15  C   UNL     1     -28.512 -11.236  18.225  0.00  0.00    +0.226 C 
ENDBRANCH  13  15
ENDBRANCH   7  13
ENDBRANCH   6  12
ENDBRANCH   5   6
ENDBRANCH   1   5
BRANCH   3  16
ATOM     16  C   UNL     1     -31.130 -12.349  15.393  0.00  0.00    +0.114 C 
BRANCH  16  17
ATOM     17  C   UNL     1     -32.010 -12.590  14.167  0.00  0.00    -0.027 A 
ATOM     18  C   UNL     1     -31.591 -13.331  13.038  0.00  0.00    +0.005 A 
ATOM     19  C   UNL     1     -32.441 -13.492  11.938  0.00  0.00    +0.000 A 
ATOM     20  C   UNL     1     -33.711 -12.913  11.939  0.00  0.00    +0.000 A 
ATOM     21  C   UNL     1     -34.136 -12.165  13.039  0.00  0.00    +0.000 A 
ATOM     22  C   UNL     1     -33.291 -11.999  14.141  0.00  0.00    +0.005 A 
ENDBRANCH  16  17
BRANCH  16  23
ATOM     23  C   UNL     1     -30.650 -13.613  16.149  0.00  0.00    +0.147 C 
BRANCH  23  24
ATOM     24  C   UNL     1     -31.541 -14.025  17.290  0.00  0.00    +0.307 C 
ATOM     25  O   UNL     1     -32.775 -13.773  17.233  0.00  0.00    -0.251 OA
BRANCH  24  26
ATOM     26  O   UNL     1     -31.017 -14.641  18.424  0.00  0.00    -0.481 OA
ATOM     27  H   UNL     1     -30.026 -14.597  18.630  0.00  0.00    +0.295 HD
ENDBRANCH  24  26
ENDBRANCH  23  24
ENDBRANCH  16  23
ENDBRANCH   3  16
TORSDOF 10
ENDMDL
MODEL 4
REMARK VINA RESULT:    -4.571      1.984      6.526
REMARK INTER + INTRA:          -9.285
REMARK INTER:                  -7.697
REMARK INTRA:                  -1.588
REMARK UNBOUND:                -2.175
REMARK  Name = 
REMARK  11 active torsions:
REMARK  status: ('A' for Active; 'I' for Inactive)
REMARK    1  A    between atoms: C_1  and  C_2
REMARK    2  A    between atoms: C_2  and  O_3
REMARK    3  A    between atoms: O_3  and  C_4
REMARK    4  A    between atoms: C_9  and  O_10
REMARK    5  A    between atoms: O_10  and  C_11
REMARK    6  A    between atoms: C_11  and  C_12
REMARK    7  A    between atoms: N_14  and  C_15
REMARK    8  A    between atoms: C_15  and  C_16
REMARK    9  A    between atoms: C_15  and  C_20
REMARK   10  A    between atoms: C_16  and  C_17
REMARK   11  A    between atoms: C_17  and  O_19
REMARK                            x       y       z     vdW  Elec       q    Type
REMARK                         _______ _______ _______ _____ _____    ______ ____
ROOT
ATOM      1  C   UNL     1     -30.950 -10.301  16.553  0.00  0.00    +0.251 C 
ATOM      2  O   UNL     1     -30.276  -9.817  15.604  0.00  0.00    -0.272 OA
ATOM      3  N   UNL     1     -31.415 -11.659  16.498  0.00  0.00    -0.305 N 
ATOM      4  H   UNL     1     -31.939 -12.044  17.319  0.00  0.00    +0.149 HD
ENDROOT
BRANCH   1   5
ATOM      5  C   UNL     1     -31.264  -9.439  17.735  0.00  0.00    +0.324 C 
BRANCH   5   6
ATOM      6  O   UNL     1     -30.102  -9.333  18.556  0.00  0.00    -0.479 OA
BRANCH   6  12
ATOM      7  C   UNL     1     -29.773 -11.060  20.208  0.00  0.00    +0.162 A 
ATOM      8  C   UNL     1     -29.035 -12.154  20.706  0.00  0.00    +0.049 A 
ATOM      9  C   UNL     1     -27.902 -12.607  20.026  0.00  0.00    +0.004 A 
ATOM     10  C   UNL     1     -27.490 -11.979  18.849  0.00  0.00    +0.004 A 
ATOM     11  C   UNL     1     -28.209 -10.891  18.349  0.00  0.00    +0.049 A 
ATOM     12  C   UNL     1     -29.354 -10.424  19.025  0.00  0.00    +0.163 A 
BRANCH   7  13
ATOM     13  O   UNL     1     -30.921 -10.568  20.855  0.00  0.00    -0.489 OA
BRANCH  13  15
ATOM     14  C   UNL     1     -32.620 -12.037  19.919  0.00  0.00    +0.048 C 
ATOM     15  C   UNL     1     -32.096 -11.322  21.161  0.00  0.00    +0.226 C 
ENDBRANCH  13  15
ENDBRANCH   7  13
ENDBRANCH   6  12
ENDBRANCH   5   6
ENDBRANCH   1   5
BRANCH   3  16
ATOM     16  C   UNL     1     -31.140 -12.542  15.356  0.00  0.00    +0.114 C 
BRANCH  16  17
ATOM     17  C   UNL     1     -32.190 -12.336  14.264  0.00  0.00    -0.027 A 
ATOM     18  C   UNL     1     -33.442 -11.717  14.491  0.00  0.00    +0.005 A 
ATOM     19  C   UNL     1     -34.367 -11.583  13.450  0.00  0.00    +0.000 A 
ATOM     20  C   UNL     1     -34.069 -12.070  12.176  0.00  0.00    +0.000 A 
ATOM     21  C   UNL     1     -32.845 -12.698  11.938  0.00  0.00    +0.000 A 
ATOM     22  C   UNL     1     -31.916 -12.837  12.974  0.00  0.00    +0.005 A 
ENDBRANCH  16  17
BRANCH  16  23
ATOM     23  C   UNL     1     -30.939 -13.997  15.845  0.00  0.00    +0.147 C 
BRANCH  23  24
ATOM     24  C   UNL     1     -29.724 -14.194  16.713  0.00  0.00    +0.307 C 
ATOM     25  O   UNL     1     -28.581 -13.952  16.239  0.00  0.00    -0.251 OA
BRANCH  24  26
ATOM     26  O   UNL     1     -29.841 -14.682  18.012  0.00  0.00    -0.481 OA
ATOM     27  H   UNL     1     -30.550 -15.365  18.250  0.00  0.00    +0.295 HD
ENDBRANCH  24  26
ENDBRANCH  23  24
ENDBRANCH  16  23
ENDBRANCH   3  16
TORSDOF 10
ENDMDL
MODEL 5
REMARK VINA RESULT:    -4.547      2.185      4.203
REMARK INTER + INTRA:          -9.248
REMARK INTER:                  -6.748
REMARK INTRA:                  -2.499
REMARK UNBOUND:                -2.175
REMARK  Name = 
REMARK  11 active torsions:
REMARK  status: ('A' for Active; 'I' for Inactive)
REMARK    1  A    between atoms: C_1  and  C_2
REMARK    2  A    between atoms: C_2  and  O_3
REMARK    3  A    between atoms: O_3  and  C_4
REMARK    4  A    between atoms: C_9  and  O_10
REMARK    5  A    between atoms: O_10  and  C_11
REMARK    6  A    between atoms: C_11  and  C_12
REMARK    7  A    between atoms: N_14  and  C_15
REMARK    8  A    between atoms: C_15  and  C_16
REMARK    9  A    between atoms: C_15  and  C_20
REMARK   10  A    between atoms: C_16  and  C_17
REMARK   11  A    between atoms: C_17  and  O_19
REMARK                            x       y       z     vdW  Elec       q    Type
REMARK                         _______ _______ _______ _____ _____    ______ ____
ROOT
ATOM      1  C   UNL     1     -29.415 -10.334  18.575  0.00  0.00    +0.251 C 
ATOM      2  O   UNL     1     -29.609  -9.382  19.379  0.00  0.00    -0.272 OA
ATOM      3  N   UNL     1     -29.141 -11.657  19.065  0.00  0.00    -0.305 N 
ATOM      4  H   UNL     1     -29.023 -12.434  18.374  0.00  0.00    +0.149 HD
ENDROOT
BRANCH   1   5
ATOM      5  C   UNL     1     -29.468 -10.066  17.105  0.00  0.00    +0.324 C 
BRANCH   5   6
ATOM      6  O   UNL     1     -30.253 -11.077  16.474  0.00  0.00    -0.479 OA
BRANCH   6  12
ATOM      7  C   UNL     1     -32.380 -12.202  16.301  0.00  0.00    +0.162 A 
ATOM      8  C   UNL     1     -33.776 -12.160  16.103  0.00  0.00    +0.049 A 
ATOM      9  C   UNL     1     -34.421 -10.937  15.900  0.00  0.00    +0.004 A 
ATOM     10  C   UNL     1     -33.688  -9.749  15.888  0.00  0.00    +0.004 A 
ATOM     11  C   UNL     1     -32.305  -9.778  16.076  0.00  0.00    +0.049 A 
ATOM     12  C   UNL     1     -31.642 -11.005  16.283  0.00  0.00    +0.163 A 
BRANCH   7  13
ATOM     13  O   UNL     1     -31.685 -13.408  16.511  0.00  0.00    -0.489 OA
BRANCH  13  15
ATOM     14  C   UNL     1     -29.540 -14.388  15.912  0.00  0.00    +0.048 C 
ATOM     15  C   UNL     1     -30.994 -14.159  15.511  0.00  0.00    +0.226 C 
ENDBRANCH  13  15
ENDBRANCH   7  13
ENDBRANCH   6  12
ENDBRANCH   5   6
ENDBRANCH   1   5
BRANCH   3  16
ATOM     16  C   UNL     1     -29.071 -11.967  20.500  0.00  0.00    +0.114 C 
BRANCH  16  17
ATOM     17  C   UNL     1     -27.896 -12.905  20.780  0.00  0.00    -0.027 A 
ATOM     18  C   UNL     1     -27.874 -13.832  21.848  0.00  0.00    +0.005 A 
ATOM     19  C   UNL     1     -26.755 -14.643  22.062  0.00  0.00    +0.000 A 
ATOM     20  C   UNL     1     -25.640 -14.539  21.227  0.00  0.00    +0.000 A 
ATOM     21  C   UNL     1     -25.638 -13.619  20.177  0.00  0.00    +0.000 A 
ATOM     22  C   UNL     1     -26.753 -12.803  19.959  0.00  0.00    +0.005 A 
ENDBRANCH  16  17
BRANCH  16  23
ATOM     23  C   UNL     1     -30.456 -12.436  21.011  0.00  0.00    +0.147 C 
BRANCH  23  24
ATOM     24  C   UNL     1     -31.384 -12.914  19.925  0.00  0.00    +0.307 C 
ATOM     25  O   UNL     1     -32.503 -12.351  19.777  0.00  0.00    -0.251 OA
BRANCH  24  26
ATOM     26  O   UNL     1     -31.046 -13.994  19.114  0.00  0.00    -0.481 OA
ATOM     27  H   UNL     1     -30.394 -13.884  18.347  0.00  0.00    +0.295 HD
ENDBRANCH  24  26
ENDBRANCH  23  24
ENDBRANCH  16  23
ENDBRANCH   3  16
TORSDOF 10
ENDMDL
MODEL 6
REMARK VINA RESULT:    -4.467      2.433      6.735
REMARK INTER + INTRA:          -9.123
REMARK INTER:                  -6.904
REMARK INTRA:                  -2.219
REMARK UNBOUND:                -2.175
REMARK  Name = 
REMARK  11 active torsions:
REMARK  status: ('A' for Active; 'I' for Inactive)
REMARK    1  A    between atoms: C_1  and  C_2
REMARK    2  A    between atoms: C_2  and  O_3
REMARK    3  A    between atoms: O_3  and  C_4
REMARK    4  A    between atoms: C_9  and  O_10
REMARK    5  A    between atoms: O_10  and  C_11
REMARK    6  A    between atoms: C_11  and  C_12
REMARK    7  A    between atoms: N_14  and  C_15
REMARK    8  A    between atoms: C_15  and  C_16
REMARK    9  A    between atoms: C_15  and  C_20
REMARK   10  A    between atoms: C_16  and  C_17
REMARK   11  A    between atoms: C_17  and  O_19
REMARK                            x       y       z     vdW  Elec       q    Type
REMARK                         _______ _______ _______ _____ _____    ______ ____
ROOT
ATOM      1  C   UNL     1     -28.561 -12.565  17.839  0.00  0.00    +0.251 C 
ATOM      2  O   UNL     1     -27.927 -13.558  18.288  0.00  0.00    -0.272 OA
ATOM      3  N   UNL     1     -29.692 -12.754  16.973  0.00  0.00    -0.305 N 
ATOM      4  H   UNL     1     -30.221 -11.912  16.648  0.00  0.00    +0.149 HD
ENDROOT
BRANCH   1   5
ATOM      5  C   UNL     1     -28.115 -11.188  18.215  0.00  0.00    +0.324 C 
BRANCH   5   6
ATOM      6  O   UNL     1     -28.461 -10.941  19.576  0.00  0.00    -0.479 OA
BRANCH   6  12
ATOM      7  C   UNL     1     -30.363 -11.555  20.928  0.00  0.00    +0.162 A 
ATOM      8  C   UNL     1     -31.669 -11.297  21.393  0.00  0.00    +0.049 A 
ATOM      9  C   UNL     1     -32.353 -10.152  20.974  0.00  0.00    +0.004 A 
ATOM     10  C   UNL     1     -31.750  -9.258  20.089  0.00  0.00    +0.004 A 
ATOM     11  C   UNL     1     -30.459  -9.505  19.615  0.00  0.00    +0.049 A 
ATOM     12  C   UNL     1     -29.759 -10.656  20.031  0.00  0.00    +0.163 A 
BRANCH   7  13
ATOM     13  O   UNL     1     -29.633 -12.691  21.321  0.00  0.00    -0.489 OA
BRANCH  13  15
ATOM     14  C   UNL     1     -27.585 -13.930  21.758  0.00  0.00    +0.048 C 
ATOM     15  C   UNL     1     -28.411 -12.684  22.062  0.00  0.00    +0.226 C 
ENDBRANCH  13  15
ENDBRANCH   7  13
ENDBRANCH   6  12
ENDBRANCH   5   6
ENDBRANCH   1   5
BRANCH   3  16
ATOM     16  C   UNL     1     -30.163 -14.086  16.570  0.00  0.00    +0.114 C 
BRANCH  16  17
ATOM     17  C   UNL     1     -29.836 -14.338  15.097  0.00  0.00    -0.027 A 
ATOM     18  C   UNL     1     -28.606 -14.872  14.650  0.00  0.00    +0.005 A 
ATOM     19  C   UNL     1     -28.364 -15.054  13.284  0.00  0.00    +0.000 A 
ATOM     20  C   UNL     1     -29.334 -14.699  12.344  0.00  0.00    +0.000 A 
ATOM     21  C   UNL     1     -30.549 -14.155  12.767  0.00  0.00    +0.000 A 
ATOM     22  C   UNL     1     -30.796 -13.969  14.131  0.00  0.00    +0.005 A 
ENDBRANCH  16  17
BRANCH  16  23
ATOM     23  C   UNL     1     -31.643 -14.275  16.983  0.00  0.00    +0.147 C 
BRANCH  23  24
ATOM     24  C   UNL     1     -32.267 -13.058  17.614  0.00  0.00    +0.307 C 
ATOM     25  O   UNL     1     -32.275 -11.968  16.981  0.00  0.00    -0.251 OA
BRANCH  24  26
ATOM     26  O   UNL     1     -32.795 -13.108  18.902  0.00  0.00    -0.481 OA
ATOM     27  H   UNL     1     -33.376 -12.359  19.256  0.00  0.00    +0.295 HD
ENDBRANCH  24  26
ENDBRANCH  23  24
ENDBRANCH  16  23
ENDBRANCH   3  16
TORSDOF 10
ENDMDL
MODEL 7
REMARK VINA RESULT:    -4.419      2.438      6.444
REMARK INTER + INTRA:          -9.049
REMARK INTER:                  -7.063
REMARK INTRA:                  -1.985
REMARK UNBOUND:                -2.175
REMARK  Name = 
REMARK  11 active torsions:
REMARK  status: ('A' for Active; 'I' for Inactive)
REMARK    1  A    between atoms: C_1  and  C_2
REMARK    2  A    between atoms: C_2  and  O_3
REMARK    3  A    between atoms: O_3  and  C_4
REMARK    4  A    between atoms: C_9  and  O_10
REMARK    5  A    between atoms: O_10  and  C_11
REMARK    6  A    between atoms: C_11  and  C_12
REMARK    7  A    between atoms: N_14  and  C_15
REMARK    8  A    between atoms: C_15  and  C_16
REMARK    9  A    between atoms: C_15  and  C_20
REMARK   10  A    between atoms: C_16  and  C_17
REMARK   11  A    between atoms: C_17  and  O_19
REMARK                            x       y       z     vdW  Elec       q    Type
REMARK                         _______ _______ _______ _____ _____    ______ ____
ROOT
ATOM      1  C   UNL     1     -30.172 -13.182  17.242  0.00  0.00    +0.251 C 
ATOM      2  O   UNL     1     -30.817 -14.098  17.820  0.00  0.00    -0.272 OA
ATOM      3  N   UNL     1     -30.850 -12.232  16.405  0.00  0.00    -0.305 N 
ATOM      4  H   UNL     1     -30.293 -11.459  15.970  0.00  0.00    +0.149 HD
ENDROOT
BRANCH   1   5
ATOM      5  C   UNL     1     -28.691 -13.102  17.436  0.00  0.00    +0.324 C 
BRANCH   5   6
ATOM      6  O   UNL     1     -28.418 -12.473  18.687  0.00  0.00    -0.479 OA
BRANCH   6  12
ATOM      7  C   UNL     1     -28.571 -13.502  20.864  0.00  0.00    +0.162 A 
ATOM      8  C   UNL     1     -27.957 -14.125  21.970  0.00  0.00    +0.049 A 
ATOM      9  C   UNL     1     -26.577 -14.347  21.977  0.00  0.00    +0.004 A 
ATOM     10  C   UNL     1     -25.797 -13.951  20.890  0.00  0.00    +0.004 A 
ATOM     11  C   UNL     1     -26.392 -13.327  19.791  0.00  0.00    +0.049 A 
ATOM     12  C   UNL     1     -27.782 -13.098  19.772  0.00  0.00    +0.163 A 
BRANCH   7  13
ATOM     13  O   UNL     1     -29.956 -13.258  20.809  0.00  0.00    -0.489 OA
BRANCH  13  15
ATOM     14  C   UNL     1     -31.962 -11.937  20.421  0.00  0.00    +0.048 C 
ATOM     15  C   UNL     1     -30.597 -12.014  21.099  0.00  0.00    +0.226 C 
ENDBRANCH  13  15
ENDBRANCH   7  13
ENDBRANCH   6  12
ENDBRANCH   5   6
ENDBRANCH   1   5
BRANCH   3  16
ATOM     16  C   UNL     1     -32.301 -12.274  16.177  0.00  0.00    +0.114 C 
BRANCH  16  17
ATOM     17  C   UNL     1     -32.598 -12.419  14.684  0.00  0.00    -0.027 A 
ATOM     18  C   UNL     1     -31.687 -12.976  13.757  0.00  0.00    +0.005 A 
ATOM     19  C   UNL     1     -32.014 -13.056  12.399  0.00  0.00    +0.000 A 
ATOM     20  C   UNL     1     -33.243 -12.574  11.942  0.00  0.00    +0.000 A 
ATOM     21  C   UNL     1     -34.147 -12.006  12.841  0.00  0.00    +0.000 A 
ATOM     22  C   UNL     1     -33.825 -11.922  14.199  0.00  0.00    +0.005 A 
ENDBRANCH  16  17
BRANCH  16  23
ATOM     23  C   UNL     1     -32.987 -11.088  16.898  0.00  0.00    +0.147 C 
BRANCH  23  24
ATOM     24  C   UNL     1     -32.222  -9.793  16.820  0.00  0.00    +0.307 C 
ATOM     25  O   UNL     1     -31.096  -9.705  17.381  0.00  0.00    -0.251 OA
BRANCH  24  26
ATOM     26  O   UNL     1     -32.758  -8.680  16.177  0.00  0.00    -0.481 OA
ATOM     27  H   UNL     1     -32.185  -8.099  15.576  0.00  0.00    +0.295 HD
ENDBRANCH  24  26
ENDBRANCH  23  24
ENDBRANCH  16  23
ENDBRANCH   3  16
TORSDOF 10
ENDMDL
MODEL 8
REMARK VINA RESULT:    -4.411      0.900      2.502
REMARK INTER + INTRA:          -9.035
REMARK INTER:                  -6.638
REMARK INTRA:                  -2.398
REMARK UNBOUND:                -2.175
REMARK  Name = 
REMARK  11 active torsions:
REMARK  status: ('A' for Active; 'I' for Inactive)
REMARK    1  A    between atoms: C_1  and  C_2
REMARK    2  A    between atoms: C_2  and  O_3
REMARK    3  A    between atoms: O_3  and  C_4
REMARK    4  A    between atoms: C_9  and  O_10
REMARK    5  A    between atoms: O_10  and  C_11
REMARK    6  A    between atoms: C_11  and  C_12
REMARK    7  A    between atoms: N_14  and  C_15
REMARK    8  A    between atoms: C_15  and  C_16
REMARK    9  A    between atoms: C_15  and  C_20
REMARK   10  A    between atoms: C_16  and  C_17
REMARK   11  A    between atoms: C_17  and  O_19
REMARK                            x       y       z     vdW  Elec       q    Type
REMARK                         _______ _______ _______ _____ _____    ______ ____
ROOT
ATOM      1  C   UNL     1     -31.662  -9.737  16.607  0.00  0.00    +0.251 C 
ATOM      2  O   UNL     1     -30.591  -9.480  15.994  0.00  0.00    -0.272 OA
ATOM      3  N   UNL     1     -31.694  -9.746  18.044  0.00  0.00    -0.305 N 
ATOM      4  H   UNL     1     -32.607  -9.925  18.524  0.00  0.00    +0.149 HD
ENDROOT
BRANCH   1   5
ATOM      5  C   UNL     1     -32.897 -10.039  15.819  0.00  0.00    +0.324 C 
BRANCH   5   6
ATOM      6  O   UNL     1     -32.996 -11.449  15.629  0.00  0.00    -0.479 OA
BRANCH   6  12
ATOM      7  C   UNL     1     -31.669 -12.808  14.141  0.00  0.00    +0.162 A 
ATOM      8  C   UNL     1     -31.501 -13.462  12.903  0.00  0.00    +0.049 A 
ATOM      9  C   UNL     1     -32.510 -13.414  11.937  0.00  0.00    +0.004 A 
ATOM     10  C   UNL     1     -33.691 -12.715  12.190  0.00  0.00    +0.004 A 
ATOM     11  C   UNL     1     -33.868 -12.057  13.410  0.00  0.00    +0.049 A 
ATOM     12  C   UNL     1     -32.858 -12.098  14.392  0.00  0.00    +0.163 A 
BRANCH   7  13
ATOM     13  O   UNL     1     -30.684 -12.829  15.145  0.00  0.00    -0.489 OA
BRANCH  13  15
ATOM     14  C   UNL     1     -31.171 -14.236  17.069  0.00  0.00    +0.048 C 
ATOM     15  C   UNL     1     -30.258 -13.982  15.873  0.00  0.00    +0.226 C 
ENDBRANCH  13  15
ENDBRANCH   7  13
ENDBRANCH   6  12
ENDBRANCH   5   6
ENDBRANCH   1   5
BRANCH   3  16
ATOM     16  C   UNL     1     -30.506  -9.464  18.861  0.00  0.00    +0.114 C 
BRANCH  16  17
ATOM     17  C   UNL     1     -29.710 -10.748  19.097  0.00  0.00    -0.027 A 
ATOM     18  C   UNL     1     -28.553 -11.096  18.363  0.00  0.00    +0.005 A 
ATOM     19  C   UNL     1     -27.887 -12.300  18.615  0.00  0.00    +0.000 A 
ATOM     20  C   UNL     1     -28.365 -13.179  19.590  0.00  0.00    +0.000 A 
ATOM     21  C   UNL     1     -29.515 -12.859  20.313  0.00  0.00    +0.000 A 
ATOM     22  C   UNL     1     -30.187 -11.657  20.065  0.00  0.00    +0.005 A 
ENDBRANCH  16  17
BRANCH  16  23
ATOM     23  C   UNL     1     -30.908  -8.667  20.127  0.00  0.00    +0.147 C 
BRANCH  23  24
ATOM     24  C   UNL     1     -31.609  -7.366  19.839  0.00  0.00    +0.307 C 
ATOM     25  O   UNL     1     -31.539  -6.428  20.679  0.00  0.00    -0.251 OA
BRANCH  24  26
ATOM     26  O   UNL     1     -32.367  -7.198  18.684  0.00  0.00    -0.481 OA
ATOM     27  H   UNL     1     -31.973  -6.757  17.861  0.00  0.00    +0.295 HD
ENDBRANCH  24  26
ENDBRANCH  23  24
ENDBRANCH  16  23
ENDBRANCH   3  16
TORSDOF 10
ENDMDL
MODEL 9
REMARK VINA RESULT:    -4.356      2.269      4.666
REMARK INTER + INTRA:          -8.950
REMARK INTER:                  -6.224
REMARK INTRA:                  -2.726
REMARK UNBOUND:                -2.175
REMARK  Name = 
REMARK  11 active torsions:
REMARK  status: ('A' for Active; 'I' for Inactive)
REMARK    1  A    between atoms: C_1  and  C_2
REMARK    2  A    between atoms: C_2  and  O_3
REMARK    3  A    between atoms: O_3  and  C_4
REMARK    4  A    between atoms: C_9  and  O_10
REMARK    5  A    between atoms: O_10  and  C_11
REMARK    6  A    between atoms: C_11  and  C_12
REMARK    7  A    between atoms: N_14  and  C_15
REMARK    8  A    between atoms: C_15  and  C_16
REMARK    9  A    between atoms: C_15  and  C_20
REMARK   10  A    between atoms: C_16  and  C_17
REMARK   11  A    between atoms: C_17  and  O_19
REMARK                            x       y       z     vdW  Elec       q    Type
REMARK                         _______ _______ _______ _____ _____    ______ ____
ROOT
ATOM      1  C   UNL     1     -31.638 -11.963  19.977  0.00  0.00    +0.251 C 
ATOM      2  O   UNL     1     -32.821 -12.377  20.109  0.00  0.00    -0.272 OA
ATOM      3  N   UNL     1     -31.365 -10.764  19.234  0.00  0.00    -0.305 N 
ATOM      4  H   UNL     1     -30.376 -10.424  19.175  0.00  0.00    +0.149 HD
ENDROOT
BRANCH   1   5
ATOM      5  C   UNL     1     -30.522 -12.739  20.600  0.00  0.00    +0.324 C 
BRANCH   5   6
ATOM      6  O   UNL     1     -30.251 -13.889  19.801  0.00  0.00    -0.479 OA
BRANCH   6  12
ATOM      7  C   UNL     1     -29.075 -13.587  17.717  0.00  0.00    +0.162 A 
ATOM      8  C   UNL     1     -29.061 -13.588  16.307  0.00  0.00    +0.049 A 
ATOM      9  C   UNL     1     -30.218 -13.913  15.592  0.00  0.00    +0.004 A 
ATOM     10  C   UNL     1     -31.395 -14.236  16.268  0.00  0.00    +0.004 A 
ATOM     11  C   UNL     1     -31.423 -14.232  17.665  0.00  0.00    +0.049 A 
ATOM     12  C   UNL     1     -30.263 -13.906  18.398  0.00  0.00    +0.163 A 
BRANCH   7  13
ATOM     13  O   UNL     1     -27.937 -13.268  18.481  0.00  0.00    -0.489 OA
BRANCH  13  15
ATOM     14  C   UNL     1     -28.241 -10.904  17.993  0.00  0.00    +0.048 C 
ATOM     15  C   UNL     1     -27.502 -11.950  18.822  0.00  0.00    +0.226 C 
ENDBRANCH  13  15
ENDBRANCH   7  13
ENDBRANCH   6  12
ENDBRANCH   5   6
ENDBRANCH   1   5
BRANCH   3  16
ATOM     16  C   UNL     1     -32.426  -9.971  18.597  0.00  0.00    +0.114 C 
BRANCH  16  17
ATOM     17  C   UNL     1     -32.662 -10.457  17.167  0.00  0.00    -0.027 A 
ATOM     18  C   UNL     1     -31.746 -10.250  16.110  0.00  0.00    +0.005 A 
ATOM     19  C   UNL     1     -32.038 -10.701  14.818  0.00  0.00    +0.000 A 
ATOM     20  C   UNL     1     -33.245 -11.353  14.555  0.00  0.00    +0.000 A 
ATOM     21  C   UNL     1     -34.168 -11.552  15.584  0.00  0.00    +0.000 A 
ATOM     22  C   UNL     1     -33.883 -11.102  16.877  0.00  0.00    +0.005 A 
ENDBRANCH  16  17
BRANCH  16  23
ATOM     23  C   UNL     1     -32.134  -8.460  18.765  0.00  0.00    +0.147 C 
BRANCH  23  24
ATOM     24  C   UNL     1     -31.250  -8.129  19.939  0.00  0.00    +0.307 C 
ATOM     25  O   UNL     1     -31.724  -7.466  20.901  0.00  0.00    -0.251 OA
BRANCH  24  26
ATOM     26  O   UNL     1     -29.910  -8.506  19.958  0.00  0.00    -0.481 OA
ATOM     27  H   UNL     1     -29.497  -8.918  20.786  0.00  0.00    +0.295 HD
ENDBRANCH  24  26
ENDBRANCH  23  24
ENDBRANCH  16  23
ENDBRANCH   3  16
TORSDOF 10
ENDMDL
