MODEL 1
REMARK VINA RESULT:    -4.939      0.000      0.000
REMARK INTER + INTRA:          -6.424
REMARK INTER:                  -6.093
REMARK INTRA:                  -0.330
REMARK UNBOUND:                -0.330
REMARK  Name = 
REMARK  4 active torsions:
REMARK  status: ('A' for Active; 'I' for Inactive)
REMARK    1  A    between atoms: C_2  and  C_3
REMARK    2  A    between atoms: N_13  and  C_14
REMARK    3  A    between atoms: C_14  and  C_15
REMARK    4  A    between atoms: C_19  and  N_21
REMARK                            x       y       z     vdW  Elec       q    Type
REMARK                         _______ _______ _______ _____ _____    ______ ____
ROOT
ATOM      1  C   UNL     1     -27.272 -13.117  20.134  0.00  0.00    +0.052 A 
ATOM      2  C   UNL     1     -28.432 -13.627  20.732  0.00  0.00    +0.021 A 
ATOM      3  C   UNL     1     -29.692 -13.200  20.302  0.00  0.00    +0.029 A 
ATOM      4  C   UNL     1     -29.799 -12.260  19.272  0.00  0.00    +0.073 A 
ATOM      5  N   UNL     1     -31.023 -11.841  18.853  0.00  0.00    -0.232 NA
ATOM      6  C   UNL     1     -31.178 -10.927  17.855  0.00  0.00    +0.120 A 
ATOM      7  C   UNL     1     -30.037 -10.398  17.225  0.00  0.00    +0.044 A 
ATOM      8  C   UNL     1     -28.766 -10.806  17.635  0.00  0.00    +0.013 A 
ATOM      9  C   UNL     1     -28.634 -11.744  18.665  0.00  0.00    +0.002 A 
ATOM     10  C   UNL     1     -27.372 -12.176  19.101  0.00  0.00    +0.029 A 
ATOM     11  N   UNL     1     -32.509 -10.536  17.476  0.00  0.00    -0.325 N 
ATOM     12  H   UNL     1     -33.310 -11.038  17.921  0.00  0.00    +0.148 HD
ENDROOT
BRANCH   1  14
ATOM     13  N   UNL     1     -24.938 -13.918  20.940  0.00  0.00    -0.191 NA
ATOM     14  C   UNL     1     -25.977 -13.562  20.581  0.00  0.00    +0.099 C 
ENDBRANCH   1  14
BRANCH  11  15
ATOM     15  C   UNL     1     -32.825  -9.445  16.552  0.00  0.00    +0.138 C 
BRANCH  15  16
ATOM     16  C   UNL     1     -33.467  -9.978  15.299  0.00  0.00    -0.028 A 
ATOM     17  C   UNL     1     -34.474  -9.248  14.648  0.00  0.00    +0.005 A 
ATOM     18  C   UNL     1     -35.062  -9.744  13.484  0.00  0.00    +0.003 A 
ATOM     19  C   UNL     1     -34.647 -10.967  12.952  0.00  0.00    +0.033 A 
ATOM     20  C   UNL     1     -33.632 -11.709  13.579  0.00  0.00    +0.127 A 
ATOM     21  C   UNL     1     -33.043 -11.202  14.754  0.00  0.00    +0.038 A 
BRANCH  20  22
ATOM     22  N   UNL     1     -33.203 -12.967  13.027  0.00  0.00    +0.056 N 
ATOM     23  O   UNL     1     -32.006 -13.527  13.411  0.00  0.00    -0.126 OA
ATOM     24  O   UNL     1     -33.906 -13.570  12.190  0.00  0.00    -0.126 OA
ENDBRANCH  20  22
ENDBRANCH  15  16
ENDBRANCH  11  15
TORSDOF 4
ENDMDL
MODEL 2
REMARK VINA RESULT:    -4.321      1.493      2.153
REMARK INTER + INTRA:          -5.661
REMARK INTER:                  -5.432
REMARK INTRA:                  -0.229
REMARK UNBOUND:                -0.330
REMARK  Name = 
REMARK  4 active torsions:
REMARK  status: ('A' for Active; 'I' for Inactive)
REMARK    1  A    between atoms: C_2  and  C_3
REMARK    2  A    between atoms: N_13  and  C_14
REMARK    3  A    between atoms: C_14  and  C_15
REMARK    4  A    between atoms: C_19  and  N_21
REMARK                            x       y       z     vdW  Elec       q    Type
REMARK                         _______ _______ _______ _____ _____    ______ ____
ROOT
ATOM      1  C   UNL     1     -27.409 -13.178  20.212  0.00  0.00    +0.052 A 
ATOM      2  C   UNL     1     -26.691 -12.385  19.306  0.00  0.00    +0.021 A 
ATOM      3  C   UNL     1     -27.363 -11.673  18.308  0.00  0.00    +0.029 A 
ATOM      4  C   UNL     1     -28.756 -11.751  18.208  0.00  0.00    +0.073 A 
ATOM      5  N   UNL     1     -29.412 -11.061  17.236  0.00  0.00    -0.232 NA
ATOM      6  C   UNL     1     -30.766 -11.108  17.098  0.00  0.00    +0.120 A 
ATOM      7  C   UNL     1     -31.521 -11.887  17.993  0.00  0.00    +0.044 A 
ATOM      8  C   UNL     1     -30.876 -12.608  19.000  0.00  0.00    +0.013 A 
ATOM      9  C   UNL     1     -29.483 -12.548  19.118  0.00  0.00    +0.002 A 
ATOM     10  C   UNL     1     -28.805 -13.260  20.118  0.00  0.00    +0.029 A 
ATOM     11  N   UNL     1     -31.379 -10.350  16.041  0.00  0.00    -0.325 N 
ATOM     12  H   UNL     1     -30.767  -9.721  15.473  0.00  0.00    +0.148 HD
ENDROOT
BRANCH   1  14
ATOM     13  N   UNL     1     -26.151 -14.495  22.062  0.00  0.00    -0.191 NA
ATOM     14  C   UNL     1     -26.711 -13.909  21.238  0.00  0.00    +0.099 C 
ENDBRANCH   1  14
BRANCH  11  15
ATOM     15  C   UNL     1     -32.790 -10.439  15.663  0.00  0.00    +0.138 C 
BRANCH  15  16
ATOM     16  C   UNL     1     -32.964 -11.331  14.462  0.00  0.00    -0.028 A 
ATOM     17  C   UNL     1     -34.156 -11.302  13.720  0.00  0.00    +0.005 A 
ATOM     18  C   UNL     1     -34.309 -12.127  12.604  0.00  0.00    +0.003 A 
ATOM     19  C   UNL     1     -33.276 -12.980  12.212  0.00  0.00    +0.033 A 
ATOM     20  C   UNL     1     -32.070 -13.016  12.932  0.00  0.00    +0.127 A 
ATOM     21  C   UNL     1     -31.922 -12.181  14.057  0.00  0.00    +0.038 A 
BRANCH  20  22
ATOM     22  N   UNL     1     -31.004 -13.893  12.524  0.00  0.00    +0.056 N 
ATOM     23  O   UNL     1     -29.692 -13.560  12.770  0.00  0.00    -0.126 OA
ATOM     24  O   UNL     1     -31.251 -14.967  11.938  0.00  0.00    -0.126 OA
ENDBRANCH  20  22
ENDBRANCH  15  16
ENDBRANCH  11  15
TORSDOF 4
ENDMDL
MODEL 3
REMARK VINA RESULT:    -4.253      4.640      6.256
REMARK INTER + INTRA:          -5.577
REMARK INTER:                  -5.348
REMARK INTRA:                  -0.230
REMARK UNBOUND:                -0.330
REMARK  Name = 
REMARK  4 active torsions:
REMARK  status: ('A' for Active; 'I' for Inactive)
REMARK    1  A    between atoms: C_2  and  C_3
REMARK    2  A    between atoms: N_13  and  C_14
REMARK    3  A    between atoms: C_14  and  C_15
REMARK    4  A    between atoms: C_19  and  N_21
REMARK                            x       y       z     vdW  Elec       q    Type
REMARK                         _______ _______ _______ _____ _____    ______ ____
ROOT
ATOM      1  C   UNL     1     -30.169 -14.097  13.775  0.00  0.00    +0.052 A 
ATOM      2  C   UNL     1     -30.242 -14.718  15.029  0.00  0.00    +0.021 A 
ATOM      3  C   UNL     1     -31.080 -14.203  16.023  0.00  0.00    +0.029 A 
ATOM      4  C   UNL     1     -31.850 -13.063  15.768  0.00  0.00    +0.073 A 
ATOM      5  N   UNL     1     -32.665 -12.559  16.733  0.00  0.00    -0.232 NA
ATOM      6  C   UNL     1     -33.431 -11.450  16.533  0.00  0.00    +0.120 A 
ATOM      7  C   UNL     1     -33.390 -10.804  15.285  0.00  0.00    +0.044 A 
ATOM      8  C   UNL     1     -32.562 -11.296  14.275  0.00  0.00    +0.013 A 
ATOM      9  C   UNL     1     -31.781 -12.434  14.507  0.00  0.00    +0.002 A 
ATOM     10  C   UNL     1     -30.938 -12.955  13.513  0.00  0.00    +0.029 A 
ATOM     11  N   UNL     1     -34.262 -10.982  17.609  0.00  0.00    -0.325 N 
ATOM     12  H   UNL     1     -34.313 -11.564  18.476  0.00  0.00    +0.148 HD
ENDROOT
BRANCH   1  14
ATOM     13  N   UNL     1     -28.610 -15.062  11.938  0.00  0.00    -0.191 NA
ATOM     14  C   UNL     1     -29.304 -14.633  12.756  0.00  0.00    +0.099 C 
ENDBRANCH   1  14
BRANCH  11  15
ATOM     15  C   UNL     1     -34.998  -9.717  17.602  0.00  0.00    +0.138 C 
BRANCH  15  16
ATOM     16  C   UNL     1     -34.205  -8.635  18.286  0.00  0.00    -0.028 A 
ATOM     17  C   UNL     1     -34.770  -7.369  18.510  0.00  0.00    +0.005 A 
ATOM     18  C   UNL     1     -34.032  -6.373  19.149  0.00  0.00    +0.003 A 
ATOM     19  C   UNL     1     -32.729  -6.629  19.580  0.00  0.00    +0.033 A 
ATOM     20  C   UNL     1     -32.148  -7.892  19.379  0.00  0.00    +0.127 A 
ATOM     21  C   UNL     1     -32.898  -8.893  18.732  0.00  0.00    +0.038 A 
BRANCH  20  22
ATOM     22  N   UNL     1     -30.806  -8.156  19.827  0.00  0.00    +0.056 N 
ATOM     23  O   UNL     1     -30.096  -7.196  20.512  0.00  0.00    -0.126 OA
ATOM     24  O   UNL     1     -30.262  -9.257  19.601  0.00  0.00    -0.126 OA
ENDBRANCH  20  22
ENDBRANCH  15  16
ENDBRANCH  11  15
TORSDOF 4
ENDMDL
MODEL 4
REMARK VINA RESULT:    -4.246      3.108      3.697
REMARK INTER + INTRA:          -5.569
REMARK INTER:                  -5.177
REMARK INTRA:                  -0.391
REMARK UNBOUND:                -0.330
REMARK  Name = 
REMARK  4 active torsions:
REMARK  status: ('A' for Active; 'I' for Inactive)
REMARK    1  A    between atoms: C_2  and  C_3
REMARK    2  A    between atoms: N_13  and  C_14
REMARK    3  A    between atoms: C_14  and  C_15
REMARK    4  A    between atoms: C_19  and  N_21
REMARK                            x       y       z     vdW  Elec       q    Type
REMARK                         _______ _______ _______ _____ _____    ______ ____
ROOT
ATOM      1  C   UNL     1     -27.415 -13.372  20.251  0.00  0.00    +0.052 A 
ATOM      2  C   UNL     1     -28.425 -13.361  21.223  0.00  0.00    +0.021 A 
ATOM      3  C   UNL     1     -29.760 -13.181  20.849  0.00  0.00    +0.029 A 
ATOM      4  C   UNL     1     -30.094 -13.011  19.502  0.00  0.00    +0.073 A 
ATOM      5  N   UNL     1     -31.391 -12.833  19.135  0.00  0.00    -0.232 NA
ATOM      6  C   UNL     1     -31.764 -12.661  17.837  0.00  0.00    +0.120 A 
ATOM      7  C   UNL     1     -30.780 -12.673  16.832  0.00  0.00    +0.044 A 
ATOM      8  C   UNL     1     -29.439 -12.851  17.177  0.00  0.00    +0.013 A 
ATOM      9  C   UNL     1     -29.080 -13.022  18.519  0.00  0.00    +0.002 A 
ATOM     10  C   UNL     1     -27.742 -13.203  18.899  0.00  0.00    +0.029 A 
ATOM     11  N   UNL     1     -33.159 -12.476  17.537  0.00  0.00    -0.325 N 
ATOM     12  H   UNL     1     -33.843 -12.571  18.321  0.00  0.00    +0.148 HD
ENDROOT
BRANCH   1  14
ATOM     13  N   UNL     1     -24.939 -13.708  20.956  0.00  0.00    -0.191 NA
ATOM     14  C   UNL     1     -26.042 -13.558  20.642  0.00  0.00    +0.099 C 
ENDBRANCH   1  14
BRANCH  11  15
ATOM     15  C   UNL     1     -33.686 -12.107  16.222  0.00  0.00    +0.138 C 
BRANCH  15  16
ATOM     16  C   UNL     1     -34.056 -10.648  16.187  0.00  0.00    -0.028 A 
ATOM     17  C   UNL     1     -34.301 -10.004  14.964  0.00  0.00    +0.005 A 
ATOM     18  C   UNL     1     -34.649  -8.653  14.938  0.00  0.00    +0.003 A 
ATOM     19  C   UNL     1     -34.764  -7.933  16.129  0.00  0.00    +0.033 A 
ATOM     20  C   UNL     1     -34.535  -8.560  17.366  0.00  0.00    +0.127 A 
ATOM     21  C   UNL     1     -34.185  -9.924  17.384  0.00  0.00    +0.038 A 
BRANCH  20  22
ATOM     22  N   UNL     1     -34.659  -7.817  18.592  0.00  0.00    +0.056 N 
ATOM     23  O   UNL     1     -34.336  -8.398  19.797  0.00  0.00    -0.126 OA
ATOM     24  O   UNL     1     -35.062  -6.635  18.585  0.00  0.00    -0.126 OA
ENDBRANCH  20  22
ENDBRANCH  15  16
ENDBRANCH  11  15
TORSDOF 4
ENDMDL
MODEL 5
REMARK VINA RESULT:    -4.057      2.649      3.235
REMARK INTER + INTRA:          -5.336
REMARK INTER:                  -4.924
REMARK INTRA:                  -0.412
REMARK UNBOUND:                -0.330
REMARK  Name = 
REMARK  4 active torsions:
REMARK  status: ('A' for Active; 'I' for Inactive)
REMARK    1  A    between atoms: C_2  and  C_3
REMARK    2  A    between atoms: N_13  and  C_14
REMARK    3  A    between atoms: C_14  and  C_15
REMARK    4  A    between atoms: C_19  and  N_21
REMARK                            x       y       z     vdW  Elec       q    Type
REMARK                         _______ _______ _______ _____ _____    ______ ____
ROOT
ATOM      1  C   UNL     1     -27.411 -13.575  20.591  0.00  0.00    +0.052 A 
ATOM      2  C   UNL     1     -28.402 -13.555  21.581  0.00  0.00    +0.021 A 
ATOM      3  C   UNL     1     -29.736 -13.313  21.238  0.00  0.00    +0.029 A 
ATOM      4  C   UNL     1     -30.086 -13.090  19.902  0.00  0.00    +0.073 A 
ATOM      5  N   UNL     1     -31.382 -12.852  19.566  0.00  0.00    -0.232 NA
ATOM      6  C   UNL     1     -31.771 -12.626  18.280  0.00  0.00    +0.120 A 
ATOM      7  C   UNL     1     -30.806 -12.646  17.257  0.00  0.00    +0.044 A 
ATOM      8  C   UNL     1     -29.467 -12.885  17.571  0.00  0.00    +0.013 A 
ATOM      9  C   UNL     1     -29.092 -13.109  18.901  0.00  0.00    +0.002 A 
ATOM     10  C   UNL     1     -27.755 -13.353  19.251  0.00  0.00    +0.029 A 
ATOM     11  N   UNL     1     -33.162 -12.380  18.012  0.00  0.00    -0.325 N 
ATOM     12  H   UNL     1     -33.836 -12.472  18.805  0.00  0.00    +0.148 HD
ENDROOT
BRANCH   1  14
ATOM     13  N   UNL     1     -24.938 -14.027  21.240  0.00  0.00    -0.191 NA
ATOM     14  C   UNL     1     -26.040 -13.826  20.951  0.00  0.00    +0.099 C 
ENDBRANCH   1  14
BRANCH  11  15
ATOM     15  C   UNL     1     -33.697 -11.951  16.718  0.00  0.00    +0.138 C 
BRANCH  15  16
ATOM     16  C   UNL     1     -34.119 -10.506  16.769  0.00  0.00    -0.028 A 
ATOM     17  C   UNL     1     -34.311  -9.862  18.001  0.00  0.00    +0.005 A 
ATOM     18  C   UNL     1     -34.697  -8.522  18.042  0.00  0.00    +0.003 A 
ATOM     19  C   UNL     1     -34.886  -7.808  16.857  0.00  0.00    +0.033 A 
ATOM     20  C   UNL     1     -34.687  -8.429  15.612  0.00  0.00    +0.127 A 
ATOM     21  C   UNL     1     -34.298  -9.782  15.578  0.00  0.00    +0.038 A 
BRANCH  20  22
ATOM     22  N   UNL     1     -34.879  -7.690  14.391  0.00  0.00    +0.056 N 
ATOM     23  O   UNL     1     -34.897  -6.314  14.402  0.00  0.00    -0.126 OA
ATOM     24  O   UNL     1     -35.034  -8.284  13.304  0.00  0.00    -0.126 OA
ENDBRANCH  20  22
ENDBRANCH  15  16
ENDBRANCH  11  15
TORSDOF 4
ENDMDL
MODEL 6
REMARK VINA RESULT:    -3.992      4.799      6.878
REMARK INTER + INTRA:          -5.256
REMARK INTER:                  -4.862
REMARK INTRA:                  -0.394
REMARK UNBOUND:                -0.330
REMARK  Name = 
REMARK  4 active torsions:
REMARK  status: ('A' for Active; 'I' for Inactive)
REMARK    1  A    between atoms: C_2  and  C_3
REMARK    2  A    between atoms: N_13  and  C_14
REMARK    3  A    between atoms: C_14  and  C_15
REMARK    4  A    between atoms: C_19  and  N_21
REMARK                            x       y       z     vdW  Elec       q    Type
REMARK                         _______ _______ _______ _____ _____    ______ ____
ROOT
ATOM      1  C   UNL     1     -29.301 -14.265  13.737  0.00  0.00    +0.052 A 
ATOM      2  C   UNL     1     -30.623 -13.972  13.375  0.00  0.00    +0.021 A 
ATOM      3  C   UNL     1     -31.539 -13.541  14.340  0.00  0.00    +0.029 A 
ATOM      4  C   UNL     1     -31.139 -13.401  15.672  0.00  0.00    +0.073 A 
ATOM      5  N   UNL     1     -32.028 -12.985  16.613  0.00  0.00    -0.232 NA
ATOM      6  C   UNL     1     -31.686 -12.836  17.923  0.00  0.00    +0.120 A 
ATOM      7  C   UNL     1     -30.367 -13.113  18.325  0.00  0.00    +0.044 A 
ATOM      8  C   UNL     1     -29.432 -13.545  17.382  0.00  0.00    +0.013 A 
ATOM      9  C   UNL     1     -29.809 -13.694  16.043  0.00  0.00    +0.002 A 
ATOM     10  C   UNL     1     -28.894 -14.126  15.071  0.00  0.00    +0.029 A 
ATOM     11  N   UNL     1     -32.690 -12.394  18.853  0.00  0.00    -0.325 N 
ATOM     12  H   UNL     1     -33.622 -12.117  18.470  0.00  0.00    +0.148 HD
ENDROOT
BRANCH   1  14
ATOM     13  N   UNL     1     -27.608 -15.062  11.938  0.00  0.00    -0.191 NA
ATOM     14  C   UNL     1     -28.362 -14.707  12.739  0.00  0.00    +0.099 C 
ENDBRANCH   1  14
BRANCH  11  15
ATOM     15  C   UNL     1     -32.520 -12.358  20.307  0.00  0.00    +0.138 C 
BRANCH  15  16
ATOM     16  C   UNL     1     -32.792 -10.976  20.841  0.00  0.00    -0.028 A 
ATOM     17  C   UNL     1     -33.985 -10.700  21.527  0.00  0.00    +0.005 A 
ATOM     18  C   UNL     1     -34.230  -9.419  22.024  0.00  0.00    +0.003 A 
ATOM     19  C   UNL     1     -33.287  -8.405  21.850  0.00  0.00    +0.033 A 
ATOM     20  C   UNL     1     -32.080  -8.661  21.178  0.00  0.00    +0.127 A 
ATOM     21  C   UNL     1     -31.840  -9.957  20.679  0.00  0.00    +0.038 A 
BRANCH  20  22
ATOM     22  N   UNL     1     -31.107  -7.616  21.004  0.00  0.00    +0.056 N 
ATOM     23  O   UNL     1     -31.210  -6.440  21.712  0.00  0.00    -0.126 OA
ATOM     24  O   UNL     1     -30.155  -7.755  20.207  0.00  0.00    -0.126 OA
ENDBRANCH  20  22
ENDBRANCH  15  16
ENDBRANCH  11  15
TORSDOF 4
ENDMDL
MODEL 7
REMARK VINA RESULT:    -3.844      3.457      5.333
REMARK INTER + INTRA:          -5.072
REMARK INTER:                  -4.676
REMARK INTRA:                  -0.397
REMARK UNBOUND:                -0.330
REMARK  Name = 
REMARK  4 active torsions:
REMARK  status: ('A' for Active; 'I' for Inactive)
REMARK    1  A    between atoms: C_2  and  C_3
REMARK    2  A    between atoms: N_13  and  C_14
REMARK    3  A    between atoms: C_14  and  C_15
REMARK    4  A    between atoms: C_19  and  N_21
REMARK                            x       y       z     vdW  Elec       q    Type
REMARK                         _______ _______ _______ _____ _____    ______ ____
ROOT
ATOM      1  C   UNL     1     -31.631  -7.495  20.237  0.00  0.00    +0.052 A 
ATOM      2  C   UNL     1     -32.855  -7.744  19.601  0.00  0.00    +0.021 A 
ATOM      3  C   UNL     1     -33.061  -8.945  18.915  0.00  0.00    +0.029 A 
ATOM      4  C   UNL     1     -32.044  -9.904  18.860  0.00  0.00    +0.073 A 
ATOM      5  N   UNL     1     -32.241 -11.072  18.192  0.00  0.00    -0.232 NA
ATOM      6  C   UNL     1     -31.280 -12.034  18.109  0.00  0.00    +0.120 A 
ATOM      7  C   UNL     1     -30.041 -11.824  18.740  0.00  0.00    +0.044 A 
ATOM      8  C   UNL     1     -29.808 -10.634  19.433  0.00  0.00    +0.013 A 
ATOM      9  C   UNL     1     -30.810  -9.658  19.499  0.00  0.00    +0.002 A 
ATOM     10  C   UNL     1     -30.609  -8.452  20.187  0.00  0.00    +0.029 A 
ATOM     11  N   UNL     1     -31.570 -13.239  17.379  0.00  0.00    -0.325 N 
ATOM     12  H   UNL     1     -32.541 -13.367  17.016  0.00  0.00    +0.148 HD
ENDROOT
BRANCH   1  14
ATOM     13  N   UNL     1     -31.260  -5.263  21.509  0.00  0.00    -0.191 NA
ATOM     14  C   UNL     1     -31.426  -6.257  20.942  0.00  0.00    +0.099 C 
ENDBRANCH   1  14
BRANCH  11  15
ATOM     15  C   UNL     1     -30.587 -14.274  17.058  0.00  0.00    +0.138 C 
BRANCH  15  16
ATOM     16  C   UNL     1     -30.311 -14.307  15.578  0.00  0.00    -0.028 A 
ATOM     17  C   UNL     1     -29.143 -14.909  15.083  0.00  0.00    +0.005 A 
ATOM     18  C   UNL     1     -28.896 -14.940  13.710  0.00  0.00    +0.003 A 
ATOM     19  C   UNL     1     -29.812 -14.381  12.817  0.00  0.00    +0.033 A 
ATOM     20  C   UNL     1     -30.994 -13.785  13.289  0.00  0.00    +0.127 A 
ATOM     21  C   UNL     1     -31.237 -13.757  14.676  0.00  0.00    +0.038 A 
BRANCH  20  22
ATOM     22  N   UNL     1     -31.939 -13.214  12.366  0.00  0.00    +0.056 N 
ATOM     23  O   UNL     1     -33.025 -13.942  11.938  0.00  0.00    -0.126 OA
ATOM     24  O   UNL     1     -31.789 -12.050  11.938  0.00  0.00    -0.126 OA
ENDBRANCH  20  22
ENDBRANCH  15  16
ENDBRANCH  11  15
TORSDOF 4
ENDMDL
MODEL 8
REMARK VINA RESULT:    -3.799      4.930      7.075
REMARK INTER + INTRA:          -5.018
REMARK INTER:                  -4.573
REMARK INTRA:                  -0.444
REMARK UNBOUND:                -0.330
REMARK  Name = 
REMARK  4 active torsions:
REMARK  status: ('A' for Active; 'I' for Inactive)
REMARK    1  A    between atoms: C_2  and  C_3
REMARK    2  A    between atoms: N_13  and  C_14
REMARK    3  A    between atoms: C_14  and  C_15
REMARK    4  A    between atoms: C_19  and  N_21
REMARK                            x       y       z     vdW  Elec       q    Type
REMARK                         _______ _______ _______ _____ _____    ______ ____
ROOT
ATOM      1  C   UNL     1     -30.985 -13.578  13.393  0.00  0.00    +0.052 A 
ATOM      2  C   UNL     1     -32.165 -13.055  12.847  0.00  0.00    +0.021 A 
ATOM      3  C   UNL     1     -33.006 -12.255  13.626  0.00  0.00    +0.029 A 
ATOM      4  C   UNL     1     -32.673 -11.973  14.954  0.00  0.00    +0.073 A 
ATOM      5  N   UNL     1     -33.491 -11.196  15.714  0.00  0.00    -0.232 NA
ATOM      6  C   UNL     1     -33.210 -10.897  17.013  0.00  0.00    +0.120 A 
ATOM      7  C   UNL     1     -32.031 -11.396  17.594  0.00  0.00    +0.044 A 
ATOM      8  C   UNL     1     -31.172 -12.198  16.840  0.00  0.00    +0.013 A 
ATOM      9  C   UNL     1     -31.485 -12.496  15.508  0.00  0.00    +0.002 A 
ATOM     10  C   UNL     1     -30.644 -13.299  14.723  0.00  0.00    +0.029 A 
ATOM     11  N   UNL     1     -34.131 -10.070  17.746  0.00  0.00    -0.325 N 
ATOM     12  H   UNL     1     -34.938  -9.658  17.225  0.00  0.00    +0.148 HD
ENDROOT
BRANCH   1  14
ATOM     13  N   UNL     1     -29.429 -15.062  11.938  0.00  0.00    -0.191 NA
ATOM     14  C   UNL     1     -30.122 -14.401  12.586  0.00  0.00    +0.099 C 
ENDBRANCH   1  14
BRANCH  11  15
ATOM     15  C   UNL     1     -34.053  -9.812  19.185  0.00  0.00    +0.138 C 
BRANCH  15  16
ATOM     16  C   UNL     1     -33.477  -8.446  19.450  0.00  0.00    -0.028 A 
ATOM     17  C   UNL     1     -34.173  -7.291  19.061  0.00  0.00    +0.005 A 
ATOM     18  C   UNL     1     -33.636  -6.028  19.314  0.00  0.00    +0.003 A 
ATOM     19  C   UNL     1     -32.407  -5.903  19.964  0.00  0.00    +0.033 A 
ATOM     20  C   UNL     1     -31.699  -7.045  20.375  0.00  0.00    +0.127 A 
ATOM     21  C   UNL     1     -32.246  -8.317  20.116  0.00  0.00    +0.038 A 
BRANCH  20  22
ATOM     22  N   UNL     1     -30.434  -6.914  21.049  0.00  0.00    +0.056 N 
ATOM     23  O   UNL     1     -29.509  -5.988  20.625  0.00  0.00    -0.126 OA
ATOM     24  O   UNL     1     -30.154  -7.639  22.027  0.00  0.00    -0.126 OA
ENDBRANCH  20  22
ENDBRANCH  15  16
ENDBRANCH  11  15
TORSDOF 4
ENDMDL
MODEL 9
REMARK VINA RESULT:    -3.638      4.407      6.318
REMARK INTER + INTRA:          -4.819
REMARK INTER:                  -4.482
REMARK INTRA:                  -0.337
REMARK UNBOUND:                -0.330
REMARK  Name = 
REMARK  4 active torsions:
REMARK  status: ('A' for Active; 'I' for Inactive)
REMARK    1  A    between atoms: C_2  and  C_3
REMARK    2  A    between atoms: N_13  and  C_14
REMARK    3  A    between atoms: C_14  and  C_15
REMARK    4  A    between atoms: C_19  and  N_21
REMARK                            x       y       z     vdW  Elec       q    Type
REMARK                         _______ _______ _______ _____ _____    ______ ____
ROOT
ATOM      1  C   UNL     1     -34.511  -7.344  20.490  0.00  0.00    +0.052 A 
ATOM      2  C   UNL     1     -34.159  -8.559  21.092  0.00  0.00    +0.021 A 
ATOM      3  C   UNL     1     -33.861  -9.675  20.304  0.00  0.00    +0.029 A 
ATOM      4  C   UNL     1     -33.913  -9.583  18.910  0.00  0.00    +0.073 A 
ATOM      5  N   UNL     1     -33.626 -10.667  18.142  0.00  0.00    -0.232 NA
ATOM      6  C   UNL     1     -33.666 -10.627  16.781  0.00  0.00    +0.120 A 
ATOM      7  C   UNL     1     -34.008  -9.423  16.139  0.00  0.00    +0.044 A 
ATOM      8  C   UNL     1     -34.311  -8.293  16.901  0.00  0.00    +0.013 A 
ATOM      9  C   UNL     1     -34.267  -8.361  18.298  0.00  0.00    +0.002 A 
ATOM     10  C   UNL     1     -34.565  -7.244  19.093  0.00  0.00    +0.029 A 
ATOM     11  N   UNL     1     -33.351 -11.821  16.044  0.00  0.00    -0.325 N 
ATOM     12  H   UNL     1     -33.015 -12.652  16.582  0.00  0.00    +0.148 HD
ENDROOT
BRANCH   1  14
ATOM     13  N   UNL     1     -35.062  -5.277  21.961  0.00  0.00    -0.191 NA
ATOM     14  C   UNL     1     -34.817  -6.198  21.306  0.00  0.00    +0.099 C 
ENDBRANCH   1  14
BRANCH  11  15
ATOM     15  C   UNL     1     -33.521 -11.977  14.599  0.00  0.00    +0.138 C 
BRANCH  15  16
ATOM     16  C   UNL     1     -32.390 -12.780  14.013  0.00  0.00    -0.028 A 
ATOM     17  C   UNL     1     -32.399 -13.140  12.656  0.00  0.00    +0.005 A 
ATOM     18  C   UNL     1     -31.346 -13.881  12.117  0.00  0.00    +0.003 A 
ATOM     19  C   UNL     1     -30.270 -14.261  12.922  0.00  0.00    +0.033 A 
ATOM     20  C   UNL     1     -30.233 -13.901  14.280  0.00  0.00    +0.127 A 
ATOM     21  C   UNL     1     -31.300 -13.154  14.816  0.00  0.00    +0.038 A 
BRANCH  20  22
ATOM     22  N   UNL     1     -29.121 -14.291  15.106  0.00  0.00    +0.056 N 
ATOM     23  O   UNL     1     -27.937 -14.699  14.537  0.00  0.00    -0.126 OA
ATOM     24  O   UNL     1     -29.213 -14.268  16.351  0.00  0.00    -0.126 OA
ENDBRANCH  20  22
ENDBRANCH  15  16
ENDBRANCH  11  15
TORSDOF 4
ENDMDL
