MODEL 1
REMARK VINA RESULT:    -3.720      0.000      0.000
REMARK INTER + INTRA:          -5.124
REMARK INTER:                  -4.590
REMARK INTRA:                  -0.534
REMARK UNBOUND:                -0.534
REMARK  Name = 
REMARK  6 active torsions:
REMARK  status: ('A' for Active; 'I' for Inactive)
REMARK    1  A    between atoms: C_1  and  C_2
REMARK    2  A    between atoms: C_2  and  C_3
REMARK    3  A    between atoms: C_3  and  C_4
REMARK    4  A    between atoms: C_3  and  N_6
REMARK    5  A    between atoms: C_4  and  C_5
REMARK    6  A    between atoms: C_10  and  N_14
REMARK                            x       y       z     vdW  Elec       q    Type
REMARK                         _______ _______ _______ _____ _____    ______ ____
ROOT
ATOM      1  N   UNL     1     -31.284 -13.028  19.921  0.00  0.00    -0.311 N 
ATOM      2  C   UNL     1     -29.853 -13.074  19.994  0.00  0.00    +0.217 A 
ATOM      3  N   UNL     1     -29.091 -12.347  19.135  0.00  0.00    -0.221 NA
ATOM      4  C   UNL     1     -27.737 -12.383  19.195  0.00  0.00    +0.150 A 
ATOM      5  C   UNL     1     -27.092 -13.168  20.161  0.00  0.00    +0.184 A 
ATOM      6  C   UNL     1     -27.898 -13.937  21.028  0.00  0.00    +0.152 A 
ATOM      7  N   UNL     1     -27.334 -14.844  21.981  0.00  0.00    -0.341 N 
ATOM      8  N   UNL     1     -29.252 -13.861  20.923  0.00  0.00    -0.198 NA
ATOM      9  H   UNL     1     -31.827 -13.588  20.617  0.00  0.00    +0.149 HD
ATOM     10  H   UNL     1     -27.958 -15.338  22.657  0.00  0.00    +0.144 HD
ATOM     11  H   UNL     1     -26.332 -15.128  21.951  0.00  0.00    +0.144 HD
ENDROOT
BRANCH   5  12
ATOM     12  N   UNL     1     -25.659 -13.144  20.257  0.00  0.00    +0.061 N 
ATOM     13  O   UNL     1     -24.938 -12.230  19.524  0.00  0.00    -0.126 OA
ATOM     14  O   UNL     1     -25.076 -13.792  21.151  0.00  0.00    -0.126 OA
ENDBRANCH   5  12
BRANCH   1  15
ATOM     15  C   UNL     1     -31.996 -12.203  18.937  0.00  0.00    +0.073 C 
BRANCH  15  17
ATOM     16  C   UNL     1     -31.788 -13.178  16.580  0.00  0.00    +0.006 C 
ATOM     17  C   UNL     1     -32.632 -13.115  17.853  0.00  0.00    +0.019 C 
ENDBRANCH  15  17
BRANCH  15  18
ATOM     18  C   UNL     1     -33.051 -11.335  19.663  0.00  0.00    +0.019 C 
ATOM     19  C   UNL     1     -32.602 -10.881  21.051  0.00  0.00    +0.006 C 
ENDBRANCH  15  18
ENDBRANCH   1  15
TORSDOF 4
ENDMDL
MODEL 2
REMARK VINA RESULT:    -3.713      2.010      2.309
REMARK INTER + INTRA:          -5.116
REMARK INTER:                  -4.451
REMARK INTRA:                  -0.664
REMARK UNBOUND:                -0.534
REMARK  Name = 
REMARK  6 active torsions:
REMARK  status: ('A' for Active; 'I' for Inactive)
REMARK    1  A    between atoms: C_1  and  C_2
REMARK    2  A    between atoms: C_2  and  C_3
REMARK    3  A    between atoms: C_3  and  C_4
REMARK    4  A    between atoms: C_3  and  N_6
REMARK    5  A    between atoms: C_4  and  C_5
REMARK    6  A    between atoms: C_10  and  N_14
REMARK                            x       y       z     vdW  Elec       q    Type
REMARK                         _______ _______ _______ _____ _____    ______ ____
ROOT
ATOM      1  N   UNL     1     -30.683 -11.908  17.724  0.00  0.00    -0.311 N 
ATOM      2  C   UNL     1     -29.494 -12.269  18.438  0.00  0.00    +0.217 A 
ATOM      3  N   UNL     1     -28.279 -11.809  18.039  0.00  0.00    -0.221 NA
ATOM      4  C   UNL     1     -27.148 -12.145  18.707  0.00  0.00    +0.150 A 
ATOM      5  C   UNL     1     -27.212 -12.970  19.838  0.00  0.00    +0.184 A 
ATOM      6  C   UNL     1     -28.479 -13.461  20.222  0.00  0.00    +0.152 A 
ATOM      7  N   UNL     1     -28.636 -14.388  21.301  0.00  0.00    -0.341 N 
ATOM      8  N   UNL     1     -29.580 -13.090  19.516  0.00  0.00    -0.198 NA
ATOM      9  H   UNL     1     -31.597 -12.269  18.082  0.00  0.00    +0.149 HD
ATOM     10  H   UNL     1     -29.594 -14.669  21.606  0.00  0.00    +0.144 HD
ATOM     11  H   UNL     1     -27.827 -14.893  21.723  0.00  0.00    +0.144 HD
ENDROOT
BRANCH   5  12
ATOM     12  N   UNL     1     -26.014 -13.263  20.575  0.00  0.00    +0.061 N 
ATOM     13  O   UNL     1     -26.087 -13.538  21.921  0.00  0.00    -0.126 OA
ATOM     14  O   UNL     1     -24.941 -13.480  19.974  0.00  0.00    -0.126 OA
ENDBRANCH   5  12
BRANCH   1  15
ATOM     15  C   UNL     1     -30.659 -11.029  16.548  0.00  0.00    +0.073 C 
BRANCH  15  17
ATOM     16  C   UNL     1     -31.024 -12.909  14.849  0.00  0.00    +0.006 C 
ATOM     17  C   UNL     1     -31.579 -11.613  15.441  0.00  0.00    +0.019 C 
ENDBRANCH  15  17
BRANCH  15  18
ATOM     18  C   UNL     1     -31.081  -9.601  16.966  0.00  0.00    +0.019 C 
ATOM     19  C   UNL     1     -32.585  -9.358  16.841  0.00  0.00    +0.006 C 
ENDBRANCH  15  18
ENDBRANCH   1  15
TORSDOF 4
ENDMDL
MODEL 3
REMARK VINA RESULT:    -3.673      1.999      2.353
REMARK INTER + INTRA:          -5.066
REMARK INTER:                  -4.441
REMARK INTRA:                  -0.625
REMARK UNBOUND:                -0.534
REMARK  Name = 
REMARK  6 active torsions:
REMARK  status: ('A' for Active; 'I' for Inactive)
REMARK    1  A    between atoms: C_1  and  C_2
REMARK    2  A    between atoms: C_2  and  C_3
REMARK    3  A    between atoms: C_3  and  C_4
REMARK    4  A    between atoms: C_3  and  N_6
REMARK    5  A    between atoms: C_4  and  C_5
REMARK    6  A    between atoms: C_10  and  N_14
REMARK                            x       y       z     vdW  Elec       q    Type
REMARK                         _______ _______ _______ _____ _____    ______ ____
ROOT
ATOM      1  N   UNL     1     -30.984 -11.101  17.975  0.00  0.00    -0.311 N 
ATOM      2  C   UNL     1     -29.695 -11.571  18.388  0.00  0.00    +0.217 A 
ATOM      3  N   UNL     1     -28.563 -10.934  17.990  0.00  0.00    -0.221 NA
ATOM      4  C   UNL     1     -27.338 -11.371  18.376  0.00  0.00    +0.150 A 
ATOM      5  C   UNL     1     -27.217 -12.490  19.210  0.00  0.00    +0.184 A 
ATOM      6  C   UNL     1     -28.402 -13.157  19.592  0.00  0.00    +0.152 A 
ATOM      7  N   UNL     1     -28.377 -14.365  20.359  0.00  0.00    -0.341 N 
ATOM      8  N   UNL     1     -29.603 -12.673  19.177  0.00  0.00    -0.198 NA
ATOM      9  H   UNL     1     -31.827 -11.612  18.324  0.00  0.00    +0.149 HD
ATOM     10  H   UNL     1     -29.273 -14.787  20.688  0.00  0.00    +0.144 HD
ATOM     11  H   UNL     1     -27.502 -14.914  20.503  0.00  0.00    +0.144 HD
ENDROOT
BRANCH   5  12
ATOM     12  N   UNL     1     -25.918 -12.901  19.666  0.00  0.00    +0.061 N 
ATOM     13  O   UNL     1     -25.696 -14.216  20.008  0.00  0.00    -0.126 OA
ATOM     14  O   UNL     1     -24.938 -12.136  19.552  0.00  0.00    -0.126 OA
ENDBRANCH   5  12
BRANCH   1  15
ATOM     15  C   UNL     1     -31.153  -9.919  17.119  0.00  0.00    +0.073 C 
BRANCH  15  17
ATOM     16  C   UNL     1     -32.104 -11.703  15.548  0.00  0.00    +0.006 C 
ATOM     17  C   UNL     1     -31.368 -10.367  15.647  0.00  0.00    +0.019 C 
ENDBRANCH  15  17
BRANCH  15  18
ATOM     18  C   UNL     1     -32.330  -9.067  17.648  0.00  0.00    +0.019 C 
ATOM     19  C   UNL     1     -32.016  -8.363  18.967  0.00  0.00    +0.006 C 
ENDBRANCH  15  18
ENDBRANCH   1  15
TORSDOF 4
ENDMDL
MODEL 4
REMARK VINA RESULT:    -3.657      3.374      4.558
REMARK INTER + INTRA:          -5.047
REMARK INTER:                  -4.449
REMARK INTRA:                  -0.598
REMARK UNBOUND:                -0.534
REMARK  Name = 
REMARK  6 active torsions:
REMARK  status: ('A' for Active; 'I' for Inactive)
REMARK    1  A    between atoms: C_1  and  C_2
REMARK    2  A    between atoms: C_2  and  C_3
REMARK    3  A    between atoms: C_3  and  C_4
REMARK    4  A    between atoms: C_3  and  N_6
REMARK    5  A    between atoms: C_4  and  C_5
REMARK    6  A    between atoms: C_10  and  N_14
REMARK                            x       y       z     vdW  Elec       q    Type
REMARK                         _______ _______ _______ _____ _____    ______ ____
ROOT
ATOM      1  N   UNL     1     -31.701 -12.925  14.827  0.00  0.00    -0.311 N 
ATOM      2  C   UNL     1     -30.924 -12.478  15.946  0.00  0.00    +0.217 A 
ATOM      3  N   UNL     1     -30.690 -11.154  16.142  0.00  0.00    -0.221 NA
ATOM      4  C   UNL     1     -29.956 -10.720  17.197  0.00  0.00    +0.150 A 
ATOM      5  C   UNL     1     -29.431 -11.635  18.119  0.00  0.00    +0.184 A 
ATOM      6  C   UNL     1     -29.661 -13.009  17.885  0.00  0.00    +0.152 A 
ATOM      7  N   UNL     1     -29.085 -14.024  18.712  0.00  0.00    -0.341 N 
ATOM      8  N   UNL     1     -30.406 -13.387  16.811  0.00  0.00    -0.198 NA
ATOM      9  H   UNL     1     -31.872 -13.952  14.730  0.00  0.00    +0.149 HD
ATOM     10  H   UNL     1     -29.340 -15.025  18.555  0.00  0.00    +0.144 HD
ATOM     11  H   UNL     1     -28.323 -13.820  19.393  0.00  0.00    +0.144 HD
ENDROOT
BRANCH   5  12
ATOM     12  N   UNL     1     -28.713 -11.157  19.268  0.00  0.00    +0.061 N 
ATOM     13  O   UNL     1     -29.389 -10.520  20.283  0.00  0.00    -0.126 OA
ATOM     14  O   UNL     1     -27.527 -11.499  19.457  0.00  0.00    -0.126 OA
ENDBRANCH   5  12
BRANCH   1  15
ATOM     15  C   UNL     1     -32.285 -11.996  13.852  0.00  0.00    +0.073 C 
BRANCH  15  17
ATOM     16  C   UNL     1     -33.569 -13.110  11.938  0.00  0.00    +0.006 C 
ATOM     17  C   UNL     1     -32.208 -12.616  12.429  0.00  0.00    +0.019 C 
ENDBRANCH  15  17
BRANCH  15  18
ATOM     18  C   UNL     1     -33.736 -11.661  14.267  0.00  0.00    +0.019 C 
ATOM     19  C   UNL     1     -33.926 -10.198  14.663  0.00  0.00    +0.006 C 
ENDBRANCH  15  18
ENDBRANCH   1  15
TORSDOF 4
ENDMDL
MODEL 5
REMARK VINA RESULT:    -3.605      3.676      5.147
REMARK INTER + INTRA:          -4.982
REMARK INTER:                  -4.319
REMARK INTRA:                  -0.664
REMARK UNBOUND:                -0.534
REMARK  Name = 
REMARK  6 active torsions:
REMARK  status: ('A' for Active; 'I' for Inactive)
REMARK    1  A    between atoms: C_1  and  C_2
REMARK    2  A    between atoms: C_2  and  C_3
REMARK    3  A    between atoms: C_3  and  C_4
REMARK    4  A    between atoms: C_3  and  N_6
REMARK    5  A    between atoms: C_4  and  C_5
REMARK    6  A    between atoms: C_10  and  N_14
REMARK                            x       y       z     vdW  Elec       q    Type
REMARK                         _______ _______ _______ _____ _____    ______ ____
ROOT
ATOM      1  N   UNL     1     -29.870 -14.683  15.626  0.00  0.00    -0.311 N 
ATOM      2  C   UNL     1     -29.949 -13.773  16.730  0.00  0.00    +0.217 A 
ATOM      3  N   UNL     1     -29.631 -12.461  16.573  0.00  0.00    -0.221 NA
ATOM      4  C   UNL     1     -29.703 -11.592  17.611  0.00  0.00    +0.150 A 
ATOM      5  C   UNL     1     -30.122 -12.031  18.874  0.00  0.00    +0.184 A 
ATOM      6  C   UNL     1     -30.423 -13.402  19.027  0.00  0.00    +0.152 A 
ATOM      7  N   UNL     1     -30.762 -13.966  20.297  0.00  0.00    -0.341 N 
ATOM      8  N   UNL     1     -30.334 -14.229  17.950  0.00  0.00    -0.198 NA
ATOM      9  H   UNL     1     -30.144 -15.678  15.791  0.00  0.00    +0.149 HD
ATOM     10  H   UNL     1     -31.053 -14.967  20.358  0.00  0.00    +0.144 HD
ATOM     11  H   UNL     1     -30.616 -13.450  21.191  0.00  0.00    +0.144 HD
ENDROOT
BRANCH   5  12
ATOM     12  N   UNL     1     -30.258 -11.086  19.948  0.00  0.00    +0.061 N 
ATOM     13  O   UNL     1     -29.761  -9.811  19.806  0.00  0.00    -0.126 OA
ATOM     14  O   UNL     1     -31.005 -11.337  20.917  0.00  0.00    -0.126 OA
ENDBRANCH   5  12
BRANCH   1  15
ATOM     15  C   UNL     1     -29.455 -14.257  14.283  0.00  0.00    +0.073 C 
BRANCH  15  17
ATOM     16  C   UNL     1     -27.743 -14.698  12.431  0.00  0.00    +0.006 C 
ATOM     17  C   UNL     1     -28.190 -15.048  13.851  0.00  0.00    +0.019 C 
ENDBRANCH  15  17
BRANCH  15  18
ATOM     18  C   UNL     1     -30.632 -14.450  13.298  0.00  0.00    +0.019 C 
ATOM     19  C   UNL     1     -31.572 -13.248  13.242  0.00  0.00    +0.006 C 
ENDBRANCH  15  18
ENDBRANCH   1  15
TORSDOF 4
ENDMDL
MODEL 6
REMARK VINA RESULT:    -3.570      3.340      4.977
REMARK INTER + INTRA:          -4.939
REMARK INTER:                  -4.325
REMARK INTRA:                  -0.614
REMARK UNBOUND:                -0.534
REMARK  Name = 
REMARK  6 active torsions:
REMARK  status: ('A' for Active; 'I' for Inactive)
REMARK    1  A    between atoms: C_1  and  C_2
REMARK    2  A    between atoms: C_2  and  C_3
REMARK    3  A    between atoms: C_3  and  C_4
REMARK    4  A    between atoms: C_3  and  N_6
REMARK    5  A    between atoms: C_4  and  C_5
REMARK    6  A    between atoms: C_10  and  N_14
REMARK                            x       y       z     vdW  Elec       q    Type
REMARK                         _______ _______ _______ _____ _____    ______ ____
ROOT
ATOM      1  N   UNL     1     -31.231 -13.960  15.258  0.00  0.00    -0.311 N 
ATOM      2  C   UNL     1     -30.827 -13.280  16.454  0.00  0.00    +0.217 A 
ATOM      3  N   UNL     1     -30.239 -12.057  16.391  0.00  0.00    -0.221 NA
ATOM      4  C   UNL     1     -29.854 -11.405  17.516  0.00  0.00    +0.150 A 
ATOM      5  C   UNL     1     -30.068 -11.980  18.776  0.00  0.00    +0.184 A 
ATOM      6  C   UNL     1     -30.655 -13.264  18.822  0.00  0.00    +0.152 A 
ATOM      7  N   UNL     1     -30.824 -13.976  20.051  0.00  0.00    -0.341 N 
ATOM      8  N   UNL     1     -31.023 -13.870  17.661  0.00  0.00    -0.198 NA
ATOM      9  H   UNL     1     -31.698 -14.890  15.358  0.00  0.00    +0.149 HD
ATOM     10  H   UNL     1     -31.332 -14.888  20.055  0.00  0.00    +0.144 HD
ATOM     11  H   UNL     1     -30.353 -13.681  20.933  0.00  0.00    +0.144 HD
ENDROOT
BRANCH   5  12
ATOM     12  N   UNL     1     -29.716 -11.250  19.962  0.00  0.00    +0.061 N 
ATOM     13  O   UNL     1     -29.196 -11.915  21.048  0.00  0.00    -0.126 OA
ATOM     14  O   UNL     1     -29.674 -10.002  19.944  0.00  0.00    -0.126 OA
ENDBRANCH   5  12
BRANCH   1  15
ATOM     15  C   UNL     1     -31.043 -13.382  13.922  0.00  0.00    +0.073 C 
BRANCH  15  17
ATOM     16  C   UNL     1     -29.015 -14.902  13.563  0.00  0.00    +0.006 C 
ATOM     17  C   UNL     1     -30.349 -14.419  12.996  0.00  0.00    +0.019 C 
ENDBRANCH  15  17
BRANCH  15  18
ATOM     18  C   UNL     1     -32.411 -12.923  13.364  0.00  0.00    +0.019 C 
ATOM     19  C   UNL     1     -32.670 -13.403  11.938  0.00  0.00    +0.006 C 
ENDBRANCH  15  18
ENDBRANCH   1  15
TORSDOF 4
ENDMDL
MODEL 7
REMARK VINA RESULT:    -3.553      3.009      4.550
REMARK INTER + INTRA:          -4.918
REMARK INTER:                  -4.293
REMARK INTRA:                  -0.625
REMARK UNBOUND:                -0.534
REMARK  Name = 
REMARK  6 active torsions:
REMARK  status: ('A' for Active; 'I' for Inactive)
REMARK    1  A    between atoms: C_1  and  C_2
REMARK    2  A    between atoms: C_2  and  C_3
REMARK    3  A    between atoms: C_3  and  C_4
REMARK    4  A    between atoms: C_3  and  N_6
REMARK    5  A    between atoms: C_4  and  C_5
REMARK    6  A    between atoms: C_10  and  N_14
REMARK                            x       y       z     vdW  Elec       q    Type
REMARK                         _______ _______ _______ _____ _____    ______ ____
ROOT
ATOM      1  N   UNL     1     -31.792 -13.339  15.310  0.00  0.00    -0.311 N 
ATOM      2  C   UNL     1     -30.870 -13.326  16.407  0.00  0.00    +0.217 A 
ATOM      3  N   UNL     1     -29.551 -13.072  16.202  0.00  0.00    -0.221 NA
ATOM      4  C   UNL     1     -28.670 -13.058  17.233  0.00  0.00    +0.150 A 
ATOM      5  C   UNL     1     -29.109 -13.293  18.543  0.00  0.00    +0.184 A 
ATOM      6  C   UNL     1     -30.478 -13.582  18.735  0.00  0.00    +0.152 A 
ATOM      7  N   UNL     1     -31.005 -13.933  20.018  0.00  0.00    -0.341 N 
ATOM      8  N   UNL     1     -31.317 -13.581  17.664  0.00  0.00    -0.198 NA
ATOM      9  H   UNL     1     -32.800 -13.518  15.521  0.00  0.00    +0.149 HD
ATOM     10  H   UNL     1     -32.034 -14.064  20.137  0.00  0.00    +0.144 HD
ATOM     11  H   UNL     1     -30.390 -14.184  20.821  0.00  0.00    +0.144 HD
ENDROOT
BRANCH   5  12
ATOM     12  N   UNL     1     -28.177 -13.208  19.633  0.00  0.00    +0.061 N 
ATOM     13  O   UNL     1     -26.833 -13.387  19.401  0.00  0.00    -0.126 OA
ATOM     14  O   UNL     1     -28.543 -12.764  20.741  0.00  0.00    -0.126 OA
ENDBRANCH   5  12
BRANCH   1  15
ATOM     15  C   UNL     1     -31.374 -13.076  13.927  0.00  0.00    +0.073 C 
BRANCH  15  17
ATOM     16  C   UNL     1     -29.415 -14.370  12.905  0.00  0.00    +0.006 C 
ATOM     17  C   UNL     1     -30.901 -14.399  13.264  0.00  0.00    +0.019 C 
ENDBRANCH  15  17
BRANCH  15  18
ATOM     18  C   UNL     1     -32.542 -12.420  13.154  0.00  0.00    +0.019 C 
ATOM     19  C   UNL     1     -33.044 -13.270  11.989  0.00  0.00    +0.006 C 
ENDBRANCH  15  18
ENDBRANCH   1  15
TORSDOF 4
ENDMDL
MODEL 8
REMARK VINA RESULT:    -3.537      4.919      6.613
REMARK INTER + INTRA:          -4.898
REMARK INTER:                  -4.636
REMARK INTRA:                  -0.262
REMARK UNBOUND:                -0.534
REMARK  Name = 
REMARK  6 active torsions:
REMARK  status: ('A' for Active; 'I' for Inactive)
REMARK    1  A    between atoms: C_1  and  C_2
REMARK    2  A    between atoms: C_2  and  C_3
REMARK    3  A    between atoms: C_3  and  C_4
REMARK    4  A    between atoms: C_3  and  N_6
REMARK    5  A    between atoms: C_4  and  C_5
REMARK    6  A    between atoms: C_10  and  N_14
REMARK                            x       y       z     vdW  Elec       q    Type
REMARK                         _______ _______ _______ _____ _____    ______ ____
ROOT
ATOM      1  N   UNL     1     -32.079 -11.859  14.034  0.00  0.00    -0.311 N 
ATOM      2  C   UNL     1     -31.748 -11.116  15.214  0.00  0.00    +0.217 A 
ATOM      3  N   UNL     1     -30.634 -11.415  15.933  0.00  0.00    -0.221 NA
ATOM      4  C   UNL     1     -30.311 -10.718  17.051  0.00  0.00    +0.150 A 
ATOM      5  C   UNL     1     -31.121  -9.660  17.483  0.00  0.00    +0.184 A 
ATOM      6  C   UNL     1     -32.290  -9.380  16.740  0.00  0.00    +0.152 A 
ATOM      7  N   UNL     1     -33.231  -8.386  17.156  0.00  0.00    -0.341 N 
ATOM      8  N   UNL     1     -32.562 -10.111  15.626  0.00  0.00    -0.198 NA
ATOM      9  H   UNL     1     -32.934 -11.578  13.503  0.00  0.00    +0.149 HD
ATOM     10  H   UNL     1     -34.042  -8.153  16.542  0.00  0.00    +0.144 HD
ATOM     11  H   UNL     1     -33.210  -7.964  18.109  0.00  0.00    +0.144 HD
ENDROOT
BRANCH   5  12
ATOM     12  N   UNL     1     -30.732  -8.887  18.630  0.00  0.00    +0.061 N 
ATOM     13  O   UNL     1     -31.598  -7.956  19.156  0.00  0.00    -0.126 OA
ATOM     14  O   UNL     1     -29.714  -9.197  19.283  0.00  0.00    -0.126 OA
ENDBRANCH   5  12
BRANCH   1  15
ATOM     15  C   UNL     1     -31.244 -12.961  13.538  0.00  0.00    +0.073 C 
BRANCH  15  17
ATOM     16  C   UNL     1     -29.783 -14.731  14.671  0.00  0.00    +0.006 C 
ATOM     17  C   UNL     1     -31.165 -14.081  14.611  0.00  0.00    +0.019 C 
ENDBRANCH  15  17
BRANCH  15  18
ATOM     18  C   UNL     1     -31.818 -13.475  12.197  0.00  0.00    +0.019 C 
ATOM     19  C   UNL     1     -33.315 -13.210  12.044  0.00  0.00    +0.006 C 
ENDBRANCH  15  18
ENDBRANCH   1  15
TORSDOF 4
ENDMDL
MODEL 9
REMARK VINA RESULT:    -3.372      5.462      7.012
REMARK INTER + INTRA:          -4.694
REMARK INTER:                  -4.041
REMARK INTRA:                  -0.654
REMARK UNBOUND:                -0.534
REMARK  Name = 
REMARK  6 active torsions:
REMARK  status: ('A' for Active; 'I' for Inactive)
REMARK    1  A    between atoms: C_1  and  C_2
REMARK    2  A    between atoms: C_2  and  C_3
REMARK    3  A    between atoms: C_3  and  C_4
REMARK    4  A    between atoms: C_3  and  N_6
REMARK    5  A    between atoms: C_4  and  C_5
REMARK    6  A    between atoms: C_10  and  N_14
REMARK                            x       y       z     vdW  Elec       q    Type
REMARK                         _______ _______ _______ _____ _____    ______ ____
ROOT
ATOM      1  N   UNL     1     -31.691 -11.939  13.904  0.00  0.00    -0.311 N 
ATOM      2  C   UNL     1     -32.112 -11.615  15.235  0.00  0.00    +0.217 A 
ATOM      3  N   UNL     1     -32.636 -12.569  16.048  0.00  0.00    -0.221 NA
ATOM      4  C   UNL     1     -33.037 -12.273  17.310  0.00  0.00    +0.150 A 
ATOM      5  C   UNL     1     -32.907 -10.969  17.806  0.00  0.00    +0.184 A 
ATOM      6  C   UNL     1     -32.386  -9.984  16.938  0.00  0.00    +0.152 A 
ATOM      7  N   UNL     1     -32.307  -8.606  17.317  0.00  0.00    -0.341 N 
ATOM      8  N   UNL     1     -31.998 -10.338  15.684  0.00  0.00    -0.198 NA
ATOM      9  H   UNL     1     -31.275 -11.175  13.323  0.00  0.00    +0.149 HD
ATOM     10  H   UNL     1     -31.846  -7.920  16.680  0.00  0.00    +0.144 HD
ATOM     11  H   UNL     1     -32.800  -8.231  18.156  0.00  0.00    +0.144 HD
ENDROOT
BRANCH   5  12
ATOM     12  N   UNL     1     -33.274 -10.684  19.166  0.00  0.00    +0.061 N 
ATOM     13  O   UNL     1     -33.037 -11.617  20.149  0.00  0.00    -0.126 OA
ATOM     14  O   UNL     1     -33.605  -9.528  19.501  0.00  0.00    -0.126 OA
ENDBRANCH   5  12
BRANCH   1  15
ATOM     15  C   UNL     1     -31.792 -13.297  13.355  0.00  0.00    +0.073 C 
BRANCH  15  17
ATOM     16  C   UNL     1     -33.784 -12.538  11.938  0.00  0.00    +0.006 C 
ATOM     17  C   UNL     1     -32.427 -13.242  11.938  0.00  0.00    +0.019 C 
ENDBRANCH  15  17
BRANCH  15  18
ATOM     18  C   UNL     1     -30.390 -13.950  13.342  0.00  0.00    +0.019 C 
ATOM     19  C   UNL     1     -30.114 -14.803  14.580  0.00  0.00    +0.006 C 
ENDBRANCH  15  18
ENDBRANCH   1  15
TORSDOF 4
ENDMDL
