MODEL 1
REMARK VINA RESULT:    -4.536      0.000      0.000
REMARK INTER + INTRA:          -5.806
REMARK INTER:                  -5.597
REMARK INTRA:                  -0.208
REMARK UNBOUND:                -0.208
REMARK  Name = 
REMARK  4 active torsions:
REMARK  status: ('A' for Active; 'I' for Inactive)
REMARK    1  A    between atoms: C_2  and  C_3
REMARK    2  A    between atoms: N_13  and  C_14
REMARK    3  A    between atoms: C_14  and  C_15
REMARK    4  A    between atoms: C_19  and  N_21
REMARK                            x       y       z     vdW  Elec       q    Type
REMARK                         _______ _______ _______ _____ _____    ______ ____
ROOT
ATOM      1  C   UNL     1     -27.429 -13.319  20.219  0.00  0.00    +0.052 A 
ATOM      2  C   UNL     1     -26.745 -12.441  19.366  0.00  0.00    +0.021 A 
ATOM      3  C   UNL     1     -27.443 -11.714  18.398  0.00  0.00    +0.029 A 
ATOM      4  C   UNL     1     -28.829 -11.859  18.276  0.00  0.00    +0.073 A 
ATOM      5  N   UNL     1     -29.510 -11.154  17.333  0.00  0.00    -0.232 NA
ATOM      6  C   UNL     1     -30.858 -11.263  17.175  0.00  0.00    +0.120 A 
ATOM      7  C   UNL     1     -31.580 -12.128  18.016  0.00  0.00    +0.044 A 
ATOM      8  C   UNL     1     -30.909 -12.867  18.992  0.00  0.00    +0.013 A 
ATOM      9  C   UNL     1     -29.522 -12.741  19.132  0.00  0.00    +0.002 A 
ATOM     10  C   UNL     1     -28.817 -13.469  20.102  0.00  0.00    +0.029 A 
ATOM     11  N   UNL     1     -31.499 -10.483  16.151  0.00  0.00    -0.325 N 
ATOM     12  H   UNL     1     -30.916  -9.793  15.626  0.00  0.00    +0.148 HD
ENDROOT
BRANCH   1  14
ATOM     13  N   UNL     1     -26.123 -14.665  22.014  0.00  0.00    -0.191 NA
ATOM     14  C   UNL     1     -26.705 -14.065  21.214  0.00  0.00    +0.099 C 
ENDBRANCH   1  14
BRANCH  11  15
ATOM     15  C   UNL     1     -32.900 -10.626  15.750  0.00  0.00    +0.138 C 
BRANCH  15  16
ATOM     16  C   UNL     1     -33.013 -11.448  14.493  0.00  0.00    -0.028 A 
ATOM     17  C   UNL     1     -34.123 -11.306  13.646  0.00  0.00    +0.005 A 
ATOM     18  C   UNL     1     -34.219 -12.066  12.479  0.00  0.00    +0.003 A 
ATOM     19  C   UNL     1     -33.208 -12.968  12.142  0.00  0.00    +0.033 A 
ATOM     20  C   UNL     1     -32.081 -13.117  12.968  0.00  0.00    +0.127 A 
ATOM     21  C   UNL     1     -31.991 -12.347  14.144  0.00  0.00    +0.038 A 
BRANCH  20  22
ATOM     22  N   UNL     1     -31.038 -14.044  12.616  0.00  0.00    +0.056 N 
ATOM     23  O   UNL     1     -29.741 -13.823  13.018  0.00  0.00    -0.126 OA
ATOM     24  O   UNL     1     -31.290 -15.062  11.938  0.00  0.00    -0.126 OA
ENDBRANCH  20  22
ENDBRANCH  15  16
ENDBRANCH  11  15
TORSDOF 4
ENDMDL
MODEL 2
REMARK VINA RESULT:    -4.471      4.430      6.812
REMARK INTER + INTRA:          -5.724
REMARK INTER:                  -5.475
REMARK INTRA:                  -0.250
REMARK UNBOUND:                -0.208
REMARK  Name = 
REMARK  4 active torsions:
REMARK  status: ('A' for Active; 'I' for Inactive)
REMARK    1  A    between atoms: C_2  and  C_3
REMARK    2  A    between atoms: N_13  and  C_14
REMARK    3  A    between atoms: C_14  and  C_15
REMARK    4  A    between atoms: C_19  and  N_21
REMARK                            x       y       z     vdW  Elec       q    Type
REMARK                         _______ _______ _______ _____ _____    ______ ____
ROOT
ATOM      1  C   UNL     1     -29.912 -14.144  13.867  0.00  0.00    +0.052 A 
ATOM      2  C   UNL     1     -29.826 -14.710  15.146  0.00  0.00    +0.021 A 
ATOM      3  C   UNL     1     -30.622 -14.221  16.187  0.00  0.00    +0.029 A 
ATOM      4  C   UNL     1     -31.507 -13.163  15.955  0.00  0.00    +0.073 A 
ATOM      5  N   UNL     1     -32.281 -12.684  16.966  0.00  0.00    -0.232 NA
ATOM      6  C   UNL     1     -33.155 -11.655  16.789  0.00  0.00    +0.120 A 
ATOM      7  C   UNL     1     -33.275 -11.067  15.518  0.00  0.00    +0.044 A 
ATOM      8  C   UNL     1     -32.493 -11.535  14.460  0.00  0.00    +0.013 A 
ATOM      9  C   UNL     1     -31.598 -12.591  14.668  0.00  0.00    +0.002 A 
ATOM     10  C   UNL     1     -30.798 -13.085  13.627  0.00  0.00    +0.029 A 
ATOM     11  N   UNL     1     -33.933 -11.208  17.913  0.00  0.00    -0.325 N 
ATOM     12  H   UNL     1     -33.861 -11.751  18.803  0.00  0.00    +0.148 HD
ENDROOT
BRANCH   1  14
ATOM     13  N   UNL     1     -28.431 -15.060  11.941  0.00  0.00    -0.191 NA
ATOM     14  C   UNL     1     -29.091 -14.652  12.799  0.00  0.00    +0.099 C 
ENDBRANCH   1  14
BRANCH  11  15
ATOM     15  C   UNL     1     -34.776 -10.011  17.919  0.00  0.00    +0.138 C 
BRANCH  15  16
ATOM     16  C   UNL     1     -34.030  -8.838  18.499  0.00  0.00    -0.028 A 
ATOM     17  C   UNL     1     -34.671  -7.601  18.670  0.00  0.00    +0.005 A 
ATOM     18  C   UNL     1     -33.977  -6.519  19.213  0.00  0.00    +0.003 A 
ATOM     19  C   UNL     1     -32.642  -6.662  19.600  0.00  0.00    +0.033 A 
ATOM     20  C   UNL     1     -31.985  -7.894  19.450  0.00  0.00    +0.127 A 
ATOM     21  C   UNL     1     -32.692  -8.982  18.901  0.00  0.00    +0.038 A 
BRANCH  20  22
ATOM     22  N   UNL     1     -30.611  -8.040  19.853  0.00  0.00    +0.056 N 
ATOM     23  O   UNL     1     -29.863  -9.108  19.414  0.00  0.00    -0.126 OA
ATOM     24  O   UNL     1     -30.076  -7.203  20.610  0.00  0.00    -0.126 OA
ENDBRANCH  20  22
ENDBRANCH  15  16
ENDBRANCH  11  15
TORSDOF 4
ENDMDL
MODEL 3
REMARK VINA RESULT:    -4.151      4.550      7.386
REMARK INTER + INTRA:          -5.330
REMARK INTER:                  -4.942
REMARK INTRA:                  -0.388
REMARK UNBOUND:                -0.208
REMARK  Name = 
REMARK  4 active torsions:
REMARK  status: ('A' for Active; 'I' for Inactive)
REMARK    1  A    between atoms: C_2  and  C_3
REMARK    2  A    between atoms: N_13  and  C_14
REMARK    3  A    between atoms: C_14  and  C_15
REMARK    4  A    between atoms: C_19  and  N_21
REMARK                            x       y       z     vdW  Elec       q    Type
REMARK                         _______ _______ _______ _____ _____    ______ ____
ROOT
ATOM      1  C   UNL     1     -29.550 -14.151  13.708  0.00  0.00    +0.052 A 
ATOM      2  C   UNL     1     -30.833 -13.745  13.319  0.00  0.00    +0.021 A 
ATOM      3  C   UNL     1     -31.734 -13.252  14.268  0.00  0.00    +0.029 A 
ATOM      4  C   UNL     1     -31.357 -13.163  15.611  0.00  0.00    +0.073 A 
ATOM      5  N   UNL     1     -32.232 -12.686  16.537  0.00  0.00    -0.232 NA
ATOM      6  C   UNL     1     -31.912 -12.583  17.857  0.00  0.00    +0.120 A 
ATOM      7  C   UNL     1     -30.631 -12.974  18.285  0.00  0.00    +0.044 A 
ATOM      8  C   UNL     1     -29.711 -13.469  17.359  0.00  0.00    +0.013 A 
ATOM      9  C   UNL     1     -30.066 -13.570  16.009  0.00  0.00    +0.002 A 
ATOM     10  C   UNL     1     -29.165 -14.063  15.053  0.00  0.00    +0.029 A 
ATOM     11  N   UNL     1     -32.899 -12.071  18.769  0.00  0.00    -0.325 N 
ATOM     12  H   UNL     1     -33.795 -11.713  18.368  0.00  0.00    +0.148 HD
ENDROOT
BRANCH   1  14
ATOM     13  N   UNL     1     -27.884 -15.062  11.938  0.00  0.00    -0.191 NA
ATOM     14  C   UNL     1     -28.626 -14.656  12.726  0.00  0.00    +0.099 C 
ENDBRANCH   1  14
BRANCH  11  15
ATOM     15  C   UNL     1     -32.762 -12.068  20.227  0.00  0.00    +0.138 C 
BRANCH  15  16
ATOM     16  C   UNL     1     -32.984 -10.684  20.779  0.00  0.00    -0.028 A 
ATOM     17  C   UNL     1     -34.134 -10.393  21.530  0.00  0.00    +0.005 A 
ATOM     18  C   UNL     1     -34.331  -9.110  22.044  0.00  0.00    +0.003 A 
ATOM     19  C   UNL     1     -33.383  -8.110  21.822  0.00  0.00    +0.033 A 
ATOM     20  C   UNL     1     -32.219  -8.382  21.085  0.00  0.00    +0.127 A 
ATOM     21  C   UNL     1     -32.026  -9.679  20.569  0.00  0.00    +0.038 A 
BRANCH  20  22
ATOM     22  N   UNL     1     -31.240  -7.351  20.861  0.00  0.00    +0.056 N 
ATOM     23  O   UNL     1     -31.464  -6.067  21.303  0.00  0.00    -0.126 OA
ATOM     24  O   UNL     1     -30.174  -7.601  20.262  0.00  0.00    -0.126 OA
ENDBRANCH  20  22
ENDBRANCH  15  16
ENDBRANCH  11  15
TORSDOF 4
ENDMDL
MODEL 4
REMARK VINA RESULT:    -3.913      3.383      5.183
REMARK INTER + INTRA:          -5.036
REMARK INTER:                  -4.643
REMARK INTRA:                  -0.393
REMARK UNBOUND:                -0.208
REMARK  Name = 
REMARK  4 active torsions:
REMARK  status: ('A' for Active; 'I' for Inactive)
REMARK    1  A    between atoms: C_2  and  C_3
REMARK    2  A    between atoms: N_13  and  C_14
REMARK    3  A    between atoms: C_14  and  C_15
REMARK    4  A    between atoms: C_19  and  N_21
REMARK                            x       y       z     vdW  Elec       q    Type
REMARK                         _______ _______ _______ _____ _____    ______ ____
ROOT
ATOM      1  C   UNL     1     -32.059  -7.541  19.929  0.00  0.00    +0.052 A 
ATOM      2  C   UNL     1     -33.291  -7.977  19.422  0.00  0.00    +0.021 A 
ATOM      3  C   UNL     1     -33.397  -9.232  18.815  0.00  0.00    +0.029 A 
ATOM      4  C   UNL     1     -32.274 -10.058  18.710  0.00  0.00    +0.073 A 
ATOM      5  N   UNL     1     -32.374 -11.277  18.118  0.00  0.00    -0.232 NA
ATOM      6  C   UNL     1     -31.308 -12.115  17.990  0.00  0.00    +0.120 A 
ATOM      7  C   UNL     1     -30.057 -11.716  18.493  0.00  0.00    +0.044 A 
ATOM      8  C   UNL     1     -29.921 -10.468  19.105  0.00  0.00    +0.013 A 
ATOM      9  C   UNL     1     -31.031  -9.623  19.220  0.00  0.00    +0.002 A 
ATOM     10  C   UNL     1     -30.929  -8.363  19.828  0.00  0.00    +0.029 A 
ATOM     11  N   UNL     1     -31.501 -13.387  17.347  0.00  0.00    -0.325 N 
ATOM     12  H   UNL     1     -32.475 -13.657  17.082  0.00  0.00    +0.148 HD
ENDROOT
BRANCH   1  14
ATOM     13  N   UNL     1     -31.872  -5.210  21.056  0.00  0.00    -0.191 NA
ATOM     14  C   UNL     1     -31.956  -6.248  20.554  0.00  0.00    +0.099 C 
ENDBRANCH   1  14
BRANCH  11  15
ATOM     15  C   UNL     1     -30.423 -14.308  16.985  0.00  0.00    +0.138 C 
BRANCH  15  16
ATOM     16  C   UNL     1     -30.190 -14.297  15.496  0.00  0.00    -0.028 A 
ATOM     17  C   UNL     1     -29.008 -14.825  14.956  0.00  0.00    +0.005 A 
ATOM     18  C   UNL     1     -28.800 -14.816  13.576  0.00  0.00    +0.003 A 
ATOM     19  C   UNL     1     -29.771 -14.289  12.722  0.00  0.00    +0.033 A 
ATOM     20  C   UNL     1     -30.968 -13.767  13.240  0.00  0.00    +0.127 A 
ATOM     21  C   UNL     1     -31.171 -13.779  14.634  0.00  0.00    +0.038 A 
BRANCH  20  22
ATOM     22  N   UNL     1     -31.970 -13.228  12.357  0.00  0.00    +0.056 N 
ATOM     23  O   UNL     1     -33.037 -13.999  11.958  0.00  0.00    -0.126 OA
ATOM     24  O   UNL     1     -31.886 -12.055  11.938  0.00  0.00    -0.126 OA
ENDBRANCH  20  22
ENDBRANCH  15  16
ENDBRANCH  11  15
TORSDOF 4
ENDMDL
MODEL 5
REMARK VINA RESULT:    -3.887      2.995      7.881
REMARK INTER + INTRA:          -5.004
REMARK INTER:                  -4.739
REMARK INTRA:                  -0.265
REMARK UNBOUND:                -0.208
REMARK  Name = 
REMARK  4 active torsions:
REMARK  status: ('A' for Active; 'I' for Inactive)
REMARK    1  A    between atoms: C_2  and  C_3
REMARK    2  A    between atoms: N_13  and  C_14
REMARK    3  A    between atoms: C_14  and  C_15
REMARK    4  A    between atoms: C_19  and  N_21
REMARK                            x       y       z     vdW  Elec       q    Type
REMARK                         _______ _______ _______ _____ _____    ______ ____
ROOT
ATOM      1  C   UNL     1     -33.928 -10.858  14.321  0.00  0.00    +0.052 A 
ATOM      2  C   UNL     1     -33.779  -9.634  14.988  0.00  0.00    +0.021 A 
ATOM      3  C   UNL     1     -33.170  -9.587  16.246  0.00  0.00    +0.029 A 
ATOM      4  C   UNL     1     -32.707 -10.763  16.844  0.00  0.00    +0.073 A 
ATOM      5  N   UNL     1     -32.116 -10.721  18.068  0.00  0.00    -0.232 NA
ATOM      6  C   UNL     1     -31.652 -11.839  18.692  0.00  0.00    +0.120 A 
ATOM      7  C   UNL     1     -31.777 -13.085  18.052  0.00  0.00    +0.044 A 
ATOM      8  C   UNL     1     -32.381 -13.161  16.796  0.00  0.00    +0.013 A 
ATOM      9  C   UNL     1     -32.854 -11.998  16.177  0.00  0.00    +0.002 A 
ATOM     10  C   UNL     1     -33.466 -12.040  14.915  0.00  0.00    +0.029 A 
ATOM     11  N   UNL     1     -31.043 -11.705  19.988  0.00  0.00    -0.325 N 
ATOM     12  H   UNL     1     -30.899 -10.740  20.362  0.00  0.00    +0.148 HD
ENDROOT
BRANCH   1  14
ATOM     13  N   UNL     1     -35.060 -10.933  11.986  0.00  0.00    -0.191 NA
ATOM     14  C   UNL     1     -34.556 -10.900  13.026  0.00  0.00    +0.099 C 
ENDBRANCH   1  14
BRANCH  11  15
ATOM     15  C   UNL     1     -30.661 -12.826  20.848  0.00  0.00    +0.138 C 
BRANCH  15  16
ATOM     16  C   UNL     1     -29.186 -13.107  20.734  0.00  0.00    -0.028 A 
ATOM     17  C   UNL     1     -28.604 -14.163  21.452  0.00  0.00    +0.005 A 
ATOM     18  C   UNL     1     -27.237 -14.422  21.338  0.00  0.00    +0.003 A 
ATOM     19  C   UNL     1     -26.440 -13.637  20.502  0.00  0.00    +0.033 A 
ATOM     20  C   UNL     1     -27.004 -12.583  19.763  0.00  0.00    +0.127 A 
ATOM     21  C   UNL     1     -28.384 -12.328  19.884  0.00  0.00    +0.038 A 
BRANCH  20  22
ATOM     22  N   UNL     1     -26.181 -11.779  18.899  0.00  0.00    +0.056 N 
ATOM     23  O   UNL     1     -26.751 -11.000  17.918  0.00  0.00    -0.126 OA
ATOM     24  O   UNL     1     -24.938 -11.776  19.021  0.00  0.00    -0.126 OA
ENDBRANCH  20  22
ENDBRANCH  15  16
ENDBRANCH  11  15
TORSDOF 4
ENDMDL
MODEL 6
REMARK VINA RESULT:    -3.705      4.996      7.351
REMARK INTER + INTRA:          -4.779
REMARK INTER:                  -4.552
REMARK INTRA:                  -0.227
REMARK UNBOUND:                -0.208
REMARK  Name = 
REMARK  4 active torsions:
REMARK  status: ('A' for Active; 'I' for Inactive)
REMARK    1  A    between atoms: C_2  and  C_3
REMARK    2  A    between atoms: N_13  and  C_14
REMARK    3  A    between atoms: C_14  and  C_15
REMARK    4  A    between atoms: C_19  and  N_21
REMARK                            x       y       z     vdW  Elec       q    Type
REMARK                         _______ _______ _______ _____ _____    ______ ____
ROOT
ATOM      1  C   UNL     1     -30.670 -13.647  15.688  0.00  0.00    +0.052 A 
ATOM      2  C   UNL     1     -31.335 -14.205  16.788  0.00  0.00    +0.021 A 
ATOM      3  C   UNL     1     -32.263 -13.448  17.508  0.00  0.00    +0.029 A 
ATOM      4  C   UNL     1     -32.533 -12.128  17.133  0.00  0.00    +0.073 A 
ATOM      5  N   UNL     1     -33.434 -11.388  17.833  0.00  0.00    -0.232 NA
ATOM      6  C   UNL     1     -33.727 -10.099  17.508  0.00  0.00    +0.120 A 
ATOM      7  C   UNL     1     -33.086  -9.506  16.406  0.00  0.00    +0.044 A 
ATOM      8  C   UNL     1     -32.154 -10.239  15.668  0.00  0.00    +0.013 A 
ATOM      9  C   UNL     1     -31.866 -11.561  16.025  0.00  0.00    +0.002 A 
ATOM     10  C   UNL     1     -30.936 -12.325  15.306  0.00  0.00    +0.029 A 
ATOM     11  N   UNL     1     -34.691  -9.387  18.304  0.00  0.00    -0.325 N 
ATOM     12  H   UNL     1     -35.196  -9.918  19.049  0.00  0.00    +0.148 HD
ENDROOT
BRANCH   1  14
ATOM     13  N   UNL     1     -28.948 -15.062  14.356  0.00  0.00    -0.191 NA
ATOM     14  C   UNL     1     -29.715 -14.432  14.949  0.00  0.00    +0.099 C 
ENDBRANCH   1  14
BRANCH  11  15
ATOM     15  C   UNL     1     -34.974  -7.956  18.185  0.00  0.00    +0.138 C 
BRANCH  15  16
ATOM     16  C   UNL     1     -34.266  -7.181  19.264  0.00  0.00    -0.028 A 
ATOM     17  C   UNL     1     -34.990  -6.360  20.144  0.00  0.00    +0.005 A 
ATOM     18  C   UNL     1     -34.329  -5.648  21.146  0.00  0.00    +0.003 A 
ATOM     19  C   UNL     1     -32.944  -5.754  21.287  0.00  0.00    +0.033 A 
ATOM     20  C   UNL     1     -32.201  -6.580  20.427  0.00  0.00    +0.127 A 
ATOM     21  C   UNL     1     -32.875  -7.295  19.417  0.00  0.00    +0.038 A 
BRANCH  20  22
ATOM     22  N   UNL     1     -30.774  -6.690  20.577  0.00  0.00    +0.056 N 
ATOM     23  O   UNL     1     -30.041  -5.644  21.087  0.00  0.00    -0.126 OA
ATOM     24  O   UNL     1     -30.176  -7.736  20.244  0.00  0.00    -0.126 OA
ENDBRANCH  20  22
ENDBRANCH  15  16
ENDBRANCH  11  15
TORSDOF 4
ENDMDL
MODEL 7
REMARK VINA RESULT:    -3.691      4.712      7.161
REMARK INTER + INTRA:          -4.763
REMARK INTER:                  -4.320
REMARK INTRA:                  -0.442
REMARK UNBOUND:                -0.208
REMARK  Name = 
REMARK  4 active torsions:
REMARK  status: ('A' for Active; 'I' for Inactive)
REMARK    1  A    between atoms: C_2  and  C_3
REMARK    2  A    between atoms: N_13  and  C_14
REMARK    3  A    between atoms: C_14  and  C_15
REMARK    4  A    between atoms: C_19  and  N_21
REMARK                            x       y       z     vdW  Elec       q    Type
REMARK                         _______ _______ _______ _____ _____    ______ ____
ROOT
ATOM      1  C   UNL     1     -30.054 -14.137  14.470  0.00  0.00    +0.052 A 
ATOM      2  C   UNL     1     -29.075 -14.207  15.471  0.00  0.00    +0.021 A 
ATOM      3  C   UNL     1     -29.340 -13.711  16.751  0.00  0.00    +0.029 A 
ATOM      4  C   UNL     1     -30.584 -13.142  17.038  0.00  0.00    +0.073 A 
ATOM      5  N   UNL     1     -30.844 -12.656  18.281  0.00  0.00    -0.232 NA
ATOM      6  C   UNL     1     -32.039 -12.091  18.608  0.00  0.00    +0.120 A 
ATOM      7  C   UNL     1     -33.049 -12.009  17.633  0.00  0.00    +0.044 A 
ATOM      8  C   UNL     1     -32.812 -12.497  16.346  0.00  0.00    +0.013 A 
ATOM      9  C   UNL     1     -31.574 -13.069  16.034  0.00  0.00    +0.002 A 
ATOM     10  C   UNL     1     -31.303 -13.569  14.751  0.00  0.00    +0.029 A 
ATOM     11  N   UNL     1     -32.229 -11.600  19.946  0.00  0.00    -0.325 N 
ATOM     12  H   UNL     1     -31.471 -11.777  20.643  0.00  0.00    +0.148 HD
ENDROOT
BRANCH   1  14
ATOM     13  N   UNL     1     -29.552 -15.062  12.097  0.00  0.00    -0.191 NA
ATOM     14  C   UNL     1     -29.776 -14.651  13.154  0.00  0.00    +0.099 C 
ENDBRANCH   1  14
BRANCH  11  15
ATOM     15  C   UNL     1     -33.384 -10.817  20.389  0.00  0.00    +0.138 C 
BRANCH  15  16
ATOM     16  C   UNL     1     -33.182  -9.354  20.090  0.00  0.00    -0.028 A 
ATOM     17  C   UNL     1     -34.060  -8.675  19.231  0.00  0.00    +0.005 A 
ATOM     18  C   UNL     1     -33.872  -7.319  18.961  0.00  0.00    +0.003 A 
ATOM     19  C   UNL     1     -32.814  -6.625  19.551  0.00  0.00    +0.033 A 
ATOM     20  C   UNL     1     -31.930  -7.281  20.425  0.00  0.00    +0.127 A 
ATOM     21  C   UNL     1     -32.126  -8.650  20.692  0.00  0.00    +0.038 A 
BRANCH  20  22
ATOM     22  N   UNL     1     -30.843  -6.563  21.035  0.00  0.00    +0.056 N 
ATOM     23  O   UNL     1     -31.088  -5.597  21.984  0.00  0.00    -0.126 OA
ATOM     24  O   UNL     1     -29.660  -6.801  20.713  0.00  0.00    -0.126 OA
ENDBRANCH  20  22
ENDBRANCH  15  16
ENDBRANCH  11  15
TORSDOF 4
ENDMDL
