MODEL 1
REMARK VINA RESULT:    -5.201      0.000      0.000
REMARK INTER + INTRA:          -7.353
REMARK INTER:                  -6.722
REMARK INTRA:                  -0.632
REMARK UNBOUND:                -0.632
REMARK  Name = 
REMARK  6 active torsions:
REMARK  status: ('A' for Active; 'I' for Inactive)
REMARK    1  A    between atoms: C_1  and  N_2
REMARK    2  A    between atoms: N_2  and  S_3
REMARK    3  A    between atoms: S_3  and  C_6
REMARK    4  A    between atoms: C_11  and  C_13
REMARK    5  A    between atoms: C_15  and  C_21
REMARK    6  A    between atoms: C_17  and  C_18
REMARK                            x       y       z     vdW  Elec       q    Type
REMARK                         _______ _______ _______ _____ _____    ______ ____
ROOT
ATOM      1  C   UNL     1     -32.827 -11.575  18.133  0.00  0.00    +0.167 A 
ATOM      2  N   UNL     1     -32.590 -12.293  17.019  0.00  0.00    -0.204 NA
ATOM      3  C   UNL     1     -33.231 -11.607  16.048  0.00  0.00    +0.228 A 
ATOM      4  O   UNL     1     -33.829 -10.529  16.503  0.00  0.00    -0.439 OA
ATOM      5  C   UNL     1     -33.593 -10.473  17.791  0.00  0.00    +0.141 A 
ENDROOT
BRANCH   1  11
ATOM      6  C   UNL     1     -28.568 -11.553  19.781  0.00  0.00    +0.167 C 
ATOM      7  C   UNL     1     -29.026 -11.523  21.246  0.00  0.00    +0.048 C 
ATOM      8  C   UNL     1     -30.495 -11.917  21.237  0.00  0.00    +0.110 C 
ATOM      9  N   UNL     1     -30.947 -11.725  19.870  0.00  0.00    -0.294 N 
ATOM     10  C   UNL     1     -29.857 -11.405  18.964  0.00  0.00    +0.136 C 
ATOM     11  C   UNL     1     -32.321 -11.929  19.483  0.00  0.00    +0.268 C 
ATOM     12  O   UNL     1     -33.123 -12.422  20.321  0.00  0.00    -0.268 OA
BRANCH   6  13
ATOM     13  S   UNL     1     -27.682 -13.079  19.388  0.00  0.00    +0.034 S 
ATOM     14  O   UNL     1     -26.203 -12.858  19.537  0.00  0.00    -0.158 OA
ATOM     15  O   UNL     1     -27.963 -13.493  17.969  0.00  0.00    -0.158 OA
BRANCH  13  17
ATOM     16  C   UNL     1     -27.004 -14.744  21.319  0.00  0.00    +0.127 C 
ATOM     17  N   UNL     1     -28.134 -14.357  20.480  0.00  0.00    -0.197 NA
ATOM     18  H   UNL     1     -28.877 -13.969  21.107  0.00  0.00    +0.147 HD
ENDBRANCH  13  17
ENDBRANCH   6  13
ENDBRANCH   1  11
BRANCH   3  19
ATOM     19  C   UNL     1     -33.257 -12.023  14.631  0.00  0.00    +0.037 A 
ATOM     20  C   UNL     1     -32.192 -12.766  14.093  0.00  0.00    +0.013 A 
ATOM     21  C   UNL     1     -32.213 -13.161  12.752  0.00  0.00    +0.001 A 
ATOM     22  C   UNL     1     -33.295 -12.818  11.938  0.00  0.00    +0.000 A 
ATOM     23  C   UNL     1     -34.359 -12.080  12.463  0.00  0.00    +0.001 A 
ATOM     24  C   UNL     1     -34.343 -11.683  13.804  0.00  0.00    +0.013 A 
ENDBRANCH   3  19
BRANCH   5  25
ATOM     25  C   UNL     1     -34.110  -9.397  18.698  0.00  0.00    +0.058 C 
ATOM     26  C   UNL     1     -34.325  -8.044  18.036  0.00  0.00    +0.012 C 
ATOM     27  C   UNL     1     -33.128  -8.262  18.944  0.00  0.00    +0.012 C 
ENDBRANCH   5  25
TORSDOF 5
ENDMDL
MODEL 2
REMARK VINA RESULT:    -4.492      3.118      7.134
REMARK INTER + INTRA:          -6.437
REMARK INTER:                  -5.830
REMARK INTRA:                  -0.607
REMARK UNBOUND:                -0.632
REMARK  Name = 
REMARK  6 active torsions:
REMARK  status: ('A' for Active; 'I' for Inactive)
REMARK    1  A    between atoms: C_1  and  N_2
REMARK    2  A    between atoms: N_2  and  S_3
REMARK    3  A    between atoms: S_3  and  C_6
REMARK    4  A    between atoms: C_11  and  C_13
REMARK    5  A    between atoms: C_15  and  C_21
REMARK    6  A    between atoms: C_17  and  C_18
REMARK                            x       y       z     vdW  Elec       q    Type
REMARK                         _______ _______ _______ _____ _____    ______ ____
ROOT
ATOM      1  C   UNL     1     -31.036 -12.274  19.670  0.00  0.00    +0.167 A 
ATOM      2  N   UNL     1     -29.971 -12.352  20.491  0.00  0.00    -0.204 NA
ATOM      3  C   UNL     1     -29.122 -13.180  19.845  0.00  0.00    +0.228 A 
ATOM      4  O   UNL     1     -29.603 -13.598  18.695  0.00  0.00    -0.439 OA
ATOM      5  C   UNL     1     -30.785 -13.050  18.551  0.00  0.00    +0.141 A 
ENDROOT
BRANCH   1  11
ATOM      6  C   UNL     1     -31.705  -7.764  19.400  0.00  0.00    +0.167 C 
ATOM      7  C   UNL     1     -33.233  -7.892  19.328  0.00  0.00    +0.048 C 
ATOM      8  C   UNL     1     -33.560  -9.306  19.784  0.00  0.00    +0.110 C 
ATOM      9  N   UNL     1     -32.320 -10.055  19.668  0.00  0.00    -0.294 N 
ATOM     10  C   UNL     1     -31.187  -9.207  19.340  0.00  0.00    +0.136 C 
ATOM     11  C   UNL     1     -32.251 -11.468  19.947  0.00  0.00    +0.268 C 
ATOM     12  O   UNL     1     -33.261 -12.042  20.438  0.00  0.00    -0.268 OA
BRANCH   6  13
ATOM     13  S   UNL     1     -31.173  -6.910  20.902  0.00  0.00    +0.034 S 
ATOM     14  O   UNL     1     -31.199  -7.865  22.062  0.00  0.00    -0.158 OA
ATOM     15  O   UNL     1     -32.099  -5.764  21.205  0.00  0.00    -0.158 OA
BRANCH  13  17
ATOM     16  C   UNL     1     -29.348  -5.105  21.513  0.00  0.00    +0.127 C 
ATOM     17  N   UNL     1     -29.541  -6.327  20.738  0.00  0.00    -0.197 NA
ATOM     18  H   UNL     1     -28.916  -7.061  21.143  0.00  0.00    +0.147 HD
ENDBRANCH  13  17
ENDBRANCH   6  13
ENDBRANCH   1  11
BRANCH   3  19
ATOM     19  C   UNL     1     -27.800 -13.573  20.372  0.00  0.00    +0.037 A 
ATOM     20  C   UNL     1     -27.706 -14.318  21.560  0.00  0.00    +0.013 A 
ATOM     21  C   UNL     1     -26.456 -14.690  22.062  0.00  0.00    +0.001 A 
ATOM     22  C   UNL     1     -25.290 -14.323  21.385  0.00  0.00    +0.000 A 
ATOM     23  C   UNL     1     -25.374 -13.583  20.203  0.00  0.00    +0.001 A 
ATOM     24  C   UNL     1     -26.622 -13.208  19.696  0.00  0.00    +0.013 A 
ENDBRANCH   3  19
BRANCH   5  25
ATOM     25  C   UNL     1     -31.683 -13.278  17.372  0.00  0.00    +0.058 C 
ATOM     26  C   UNL     1     -31.127 -14.216  16.309  0.00  0.00    +0.012 C 
ATOM     27  C   UNL     1     -31.150 -12.718  16.062  0.00  0.00    +0.012 C 
ENDBRANCH   5  25
TORSDOF 5
ENDMDL
MODEL 3
REMARK VINA RESULT:    -4.357      2.757      7.293
REMARK INTER + INTRA:          -6.263
REMARK INTER:                  -5.499
REMARK INTRA:                  -0.764
REMARK UNBOUND:                -0.632
REMARK  Name = 
REMARK  6 active torsions:
REMARK  status: ('A' for Active; 'I' for Inactive)
REMARK    1  A    between atoms: C_1  and  N_2
REMARK    2  A    between atoms: N_2  and  S_3
REMARK    3  A    between atoms: S_3  and  C_6
REMARK    4  A    between atoms: C_11  and  C_13
REMARK    5  A    between atoms: C_15  and  C_21
REMARK    6  A    between atoms: C_17  and  C_18
REMARK                            x       y       z     vdW  Elec       q    Type
REMARK                         _______ _______ _______ _____ _____    ______ ____
ROOT
ATOM      1  C   UNL     1     -31.206 -12.930  18.835  0.00  0.00    +0.167 A 
ATOM      2  N   UNL     1     -29.956 -13.432  18.809  0.00  0.00    -0.204 NA
ATOM      3  C   UNL     1     -29.467 -13.153  20.037  0.00  0.00    +0.228 A 
ATOM      4  O   UNL     1     -30.338 -12.525  20.795  0.00  0.00    -0.439 OA
ATOM      5  C   UNL     1     -31.429 -12.376  20.085  0.00  0.00    +0.141 A 
ENDROOT
BRANCH   1  11
ATOM      6  C   UNL     1     -32.609  -9.649  15.985  0.00  0.00    +0.167 C 
ATOM      7  C   UNL     1     -33.091 -10.641  14.918  0.00  0.00    +0.048 C 
ATOM      8  C   UNL     1     -33.180 -11.994  15.608  0.00  0.00    +0.110 C 
ATOM      9  N   UNL     1     -32.376 -11.876  16.812  0.00  0.00    -0.294 N 
ATOM     10  C   UNL     1     -31.916 -10.517  17.043  0.00  0.00    +0.136 C 
ATOM     11  C   UNL     1     -32.159 -12.992  17.699  0.00  0.00    +0.268 C 
ATOM     12  O   UNL     1     -32.797 -14.061  17.501  0.00  0.00    -0.268 OA
BRANCH   6  13
ATOM     13  S   UNL     1     -33.977  -8.691  16.677  0.00  0.00    +0.034 S 
ATOM     14  O   UNL     1     -34.956  -9.616  17.343  0.00  0.00    -0.158 OA
ATOM     15  O   UNL     1     -34.692  -7.942  15.586  0.00  0.00    -0.158 OA
BRANCH  13  17
ATOM     16  C   UNL     1     -34.497  -7.144  18.750  0.00  0.00    +0.127 C 
ATOM     17  N   UNL     1     -33.403  -7.576  17.885  0.00  0.00    -0.197 NA
ATOM     18  H   UNL     1     -32.718  -8.100  18.478  0.00  0.00    +0.147 HD
ENDBRANCH  13  17
ENDBRANCH   6  13
ENDBRANCH   1  11
BRANCH   3  19
ATOM     19  C   UNL     1     -28.106 -13.514  20.478  0.00  0.00    +0.037 A 
ATOM     20  C   UNL     1     -27.920 -14.281  21.641  0.00  0.00    +0.013 A 
ATOM     21  C   UNL     1     -26.631 -14.624  22.062  0.00  0.00    +0.001 A 
ATOM     22  C   UNL     1     -25.519 -14.205  21.328  0.00  0.00    +0.000 A 
ATOM     23  C   UNL     1     -25.694 -13.443  20.171  0.00  0.00    +0.001 A 
ATOM     24  C   UNL     1     -26.980 -13.097  19.745  0.00  0.00    +0.013 A 
ENDBRANCH   3  19
BRANCH   5  25
ATOM     25  C   UNL     1     -32.670 -11.692  20.576  0.00  0.00    +0.058 C 
ATOM     26  C   UNL     1     -32.633 -10.172  20.521  0.00  0.00    +0.012 C 
ATOM     27  C   UNL     1     -32.476 -10.887  21.852  0.00  0.00    +0.012 C 
ENDBRANCH   5  25
TORSDOF 5
ENDMDL
MODEL 4
REMARK VINA RESULT:    -4.104      2.047      2.932
REMARK INTER + INTRA:          -5.935
REMARK INTER:                  -4.918
REMARK INTRA:                  -1.018
REMARK UNBOUND:                -0.632
REMARK  Name = 
REMARK  6 active torsions:
REMARK  status: ('A' for Active; 'I' for Inactive)
REMARK    1  A    between atoms: C_1  and  N_2
REMARK    2  A    between atoms: N_2  and  S_3
REMARK    3  A    between atoms: S_3  and  C_6
REMARK    4  A    between atoms: C_11  and  C_13
REMARK    5  A    between atoms: C_15  and  C_21
REMARK    6  A    between atoms: C_17  and  C_18
REMARK                            x       y       z     vdW  Elec       q    Type
REMARK                         _______ _______ _______ _____ _____    ______ ____
ROOT
ATOM      1  C   UNL     1     -30.473 -10.714  16.682  0.00  0.00    +0.167 A 
ATOM      2  N   UNL     1     -30.648 -11.446  15.565  0.00  0.00    -0.204 NA
ATOM      3  C   UNL     1     -31.961 -11.303  15.284  0.00  0.00    +0.228 A 
ATOM      4  O   UNL     1     -32.581 -10.534  16.152  0.00  0.00    -0.439 OA
ATOM      5  C   UNL     1     -31.688 -10.146  17.028  0.00  0.00    +0.141 A 
ENDROOT
BRANCH   1  11
ATOM      6  C   UNL     1     -28.339 -13.518  19.587  0.00  0.00    +0.167 C 
ATOM      7  C   UNL     1     -26.970 -12.856  19.380  0.00  0.00    +0.048 C 
ATOM      8  C   UNL     1     -27.245 -11.517  18.713  0.00  0.00    +0.110 C 
ATOM      9  N   UNL     1     -28.586 -11.617  18.164  0.00  0.00    -0.294 N 
ATOM     10  C   UNL     1     -29.261 -12.840  18.566  0.00  0.00    +0.136 C 
ATOM     11  C   UNL     1     -29.177 -10.555  17.387  0.00  0.00    +0.268 C 
ATOM     12  O   UNL     1     -28.568  -9.455  17.298  0.00  0.00    -0.268 OA
BRANCH   6  13
ATOM     13  S   UNL     1     -28.933 -13.315  21.283  0.00  0.00    +0.034 S 
ATOM     14  O   UNL     1     -27.973 -12.454  22.055  0.00  0.00    -0.158 OA
ATOM     15  O   UNL     1     -29.030 -14.653  21.964  0.00  0.00    -0.158 OA
BRANCH  13  17
ATOM     16  C   UNL     1     -30.358 -11.157  21.804  0.00  0.00    +0.127 C 
ATOM     17  N   UNL     1     -30.483 -12.523  21.306  0.00  0.00    -0.197 NA
ATOM     18  H   UNL     1     -30.809 -12.470  20.313  0.00  0.00    +0.147 HD
ENDBRANCH  13  17
ENDBRANCH   6  13
ENDBRANCH   1  11
BRANCH   3  19
ATOM     19  C   UNL     1     -32.626 -11.939  14.130  0.00  0.00    +0.037 A 
ATOM     20  C   UNL     1     -33.945 -11.589  13.793  0.00  0.00    +0.013 A 
ATOM     21  C   UNL     1     -34.578 -12.191  12.701  0.00  0.00    +0.001 A 
ATOM     22  C   UNL     1     -33.902 -13.146  11.938  0.00  0.00    +0.000 A 
ATOM     23  C   UNL     1     -32.591 -13.500  12.265  0.00  0.00    +0.001 A 
ATOM     24  C   UNL     1     -31.953 -12.902  13.356  0.00  0.00    +0.013 A 
ENDBRANCH   3  19
BRANCH   5  25
ATOM     25  C   UNL     1     -31.985  -9.261  18.202  0.00  0.00    +0.058 C 
ATOM     26  C   UNL     1     -33.007  -9.816  19.184  0.00  0.00    +0.012 C 
ATOM     27  C   UNL     1     -33.402  -8.707  18.224  0.00  0.00    +0.012 C 
ENDBRANCH   5  25
TORSDOF 5
ENDMDL
MODEL 5
REMARK VINA RESULT:    -3.935      3.006      6.924
REMARK INTER + INTRA:          -5.717
REMARK INTER:                  -5.007
REMARK INTRA:                  -0.710
REMARK UNBOUND:                -0.632
REMARK  Name = 
REMARK  6 active torsions:
REMARK  status: ('A' for Active; 'I' for Inactive)
REMARK    1  A    between atoms: C_1  and  N_2
REMARK    2  A    between atoms: N_2  and  S_3
REMARK    3  A    between atoms: S_3  and  C_6
REMARK    4  A    between atoms: C_11  and  C_13
REMARK    5  A    between atoms: C_15  and  C_21
REMARK    6  A    between atoms: C_17  and  C_18
REMARK                            x       y       z     vdW  Elec       q    Type
REMARK                         _______ _______ _______ _____ _____    ______ ____
ROOT
ATOM      1  C   UNL     1     -29.663 -10.781  18.275  0.00  0.00    +0.167 A 
ATOM      2  N   UNL     1     -28.691 -11.711  18.355  0.00  0.00    -0.204 NA
ATOM      3  C   UNL     1     -28.540 -11.911  19.682  0.00  0.00    +0.228 A 
ATOM      4  O   UNL     1     -29.356 -11.171  20.399  0.00  0.00    -0.439 OA
ATOM      5  C   UNL     1     -30.071 -10.463  19.560  0.00  0.00    +0.141 A 
ENDROOT
BRANCH   1  11
ATOM      6  C   UNL     1     -32.248 -12.734  15.057  0.00  0.00    +0.167 C 
ATOM      7  C   UNL     1     -32.711 -11.393  14.470  0.00  0.00    +0.048 C 
ATOM      8  C   UNL     1     -31.757 -10.341  15.019  0.00  0.00    +0.110 C 
ATOM      9  N   UNL     1     -31.117 -10.951  16.171  0.00  0.00    -0.294 N 
ATOM     10  C   UNL     1     -31.449 -12.359  16.311  0.00  0.00    +0.136 C 
ATOM     11  C   UNL     1     -30.190 -10.226  17.004  0.00  0.00    +0.268 C 
ATOM     12  O   UNL     1     -29.818  -9.077  16.644  0.00  0.00    -0.268 OA
BRANCH   6  13
ATOM     13  S   UNL     1     -31.259 -13.677  13.873  0.00  0.00    +0.034 S 
ATOM     14  O   UNL     1     -30.145 -12.816  13.346  0.00  0.00    -0.158 OA
ATOM     15  O   UNL     1     -32.112 -14.118  12.716  0.00  0.00    -0.158 OA
BRANCH  13  17
ATOM     16  C   UNL     1     -29.097 -14.865  14.809  0.00  0.00    +0.127 C 
ATOM     17  N   UNL     1     -30.533 -15.062  14.639  0.00  0.00    -0.197 NA
ATOM     18  H   UNL     1     -30.958 -15.138  15.592  0.00  0.00    +0.147 HD
ENDBRANCH  13  17
ENDBRANCH   6  13
ENDBRANCH   1  11
BRANCH   3  19
ATOM     19  C   UNL     1     -27.567 -12.858  20.262  0.00  0.00    +0.037 A 
ATOM     20  C   UNL     1     -27.972 -13.770  21.252  0.00  0.00    +0.013 A 
ATOM     21  C   UNL     1     -27.053 -14.667  21.804  0.00  0.00    +0.001 A 
ATOM     22  C   UNL     1     -25.723 -14.662  21.374  0.00  0.00    +0.000 A 
ATOM     23  C   UNL     1     -25.312 -13.760  20.390  0.00  0.00    +0.001 A 
ATOM     24  C   UNL     1     -26.227 -12.860  19.834  0.00  0.00    +0.013 A 
ENDBRANCH   3  19
BRANCH   5  25
ATOM     25  C   UNL     1     -31.119  -9.472  19.970  0.00  0.00    +0.058 C 
ATOM     26  C   UNL     1     -30.586  -8.191  20.596  0.00  0.00    +0.012 C 
ATOM     27  C   UNL     1     -31.221  -9.256  21.473  0.00  0.00    +0.012 C 
ENDBRANCH   5  25
TORSDOF 5
ENDMDL
MODEL 6
REMARK VINA RESULT:    -3.932      3.251      7.350
REMARK INTER + INTRA:          -5.713
REMARK INTER:                  -5.073
REMARK INTRA:                  -0.640
REMARK UNBOUND:                -0.632
REMARK  Name = 
REMARK  6 active torsions:
REMARK  status: ('A' for Active; 'I' for Inactive)
REMARK    1  A    between atoms: C_1  and  N_2
REMARK    2  A    between atoms: N_2  and  S_3
REMARK    3  A    between atoms: S_3  and  C_6
REMARK    4  A    between atoms: C_11  and  C_13
REMARK    5  A    between atoms: C_15  and  C_21
REMARK    6  A    between atoms: C_17  and  C_18
REMARK                            x       y       z     vdW  Elec       q    Type
REMARK                         _______ _______ _______ _____ _____    ______ ____
ROOT
ATOM      1  C   UNL     1     -29.570 -11.225  18.530  0.00  0.00    +0.167 A 
ATOM      2  N   UNL     1     -28.597 -11.412  19.442  0.00  0.00    -0.204 NA
ATOM      3  C   UNL     1     -28.298 -12.725  19.335  0.00  0.00    +0.228 A 
ATOM      4  O   UNL     1     -29.021 -13.333  18.421  0.00  0.00    -0.439 OA
ATOM      5  C   UNL     1     -29.815 -12.432  17.897  0.00  0.00    +0.141 A 
ENDROOT
BRANCH   1  11
ATOM      6  C   UNL     1     -32.341  -8.743  21.180  0.00  0.00    +0.167 C 
ATOM      7  C   UNL     1     -32.103  -7.448  20.391  0.00  0.00    +0.048 C 
ATOM      8  C   UNL     1     -31.474  -7.868  19.071  0.00  0.00    +0.110 C 
ATOM      9  N   UNL     1     -30.968  -9.213  19.283  0.00  0.00    -0.294 N 
ATOM     10  C   UNL     1     -31.366  -9.759  20.570  0.00  0.00    +0.136 C 
ATOM     11  C   UNL     1     -30.234  -9.924  18.266  0.00  0.00    +0.268 C 
ATOM     12  O   UNL     1     -30.149  -9.422  17.113  0.00  0.00    -0.268 OA
BRANCH   6  13
ATOM     13  S   UNL     1     -34.059  -9.293  21.064  0.00  0.00    +0.034 S 
ATOM     14  O   UNL     1     -34.904  -8.519  22.036  0.00  0.00    -0.158 OA
ATOM     15  O   UNL     1     -34.162 -10.756  21.399  0.00  0.00    -0.158 OA
BRANCH  13  17
ATOM     16  C   UNL     1     -34.367 -10.108  18.573  0.00  0.00    +0.127 C 
ATOM     17  N   UNL     1     -34.696  -9.003  19.469  0.00  0.00    -0.197 NA
ATOM     18  H   UNL     1     -35.737  -8.969  19.562  0.00  0.00    +0.147 HD
ENDBRANCH  13  17
ENDBRANCH   6  13
ENDBRANCH   1  11
BRANCH   3  19
ATOM     19  C   UNL     1     -27.274 -13.401  20.155  0.00  0.00    +0.037 A 
ATOM     20  C   UNL     1     -25.916 -13.310  19.804  0.00  0.00    +0.013 A 
ATOM     21  C   UNL     1     -24.943 -13.951  20.578  0.00  0.00    +0.001 A 
ATOM     22  C   UNL     1     -25.316 -14.686  21.706  0.00  0.00    +0.000 A 
ATOM     23  C   UNL     1     -26.663 -14.781  22.062  0.00  0.00    +0.001 A 
ATOM     24  C   UNL     1     -27.640 -14.143  21.293  0.00  0.00    +0.013 A 
ENDBRANCH   3  19
BRANCH   5  25
ATOM     25  C   UNL     1     -30.818 -12.716  16.818  0.00  0.00    +0.058 C 
ATOM     26  C   UNL     1     -32.178 -13.190  17.312  0.00  0.00    +0.012 C 
ATOM     27  C   UNL     1     -31.206 -14.181  16.696  0.00  0.00    +0.012 C 
ENDBRANCH   5  25
TORSDOF 5
ENDMDL
