MODEL 1
REMARK VINA RESULT:    -4.911      0.000      0.000
REMARK INTER + INTRA:          -6.936
REMARK INTER:                  -6.346
REMARK INTRA:                  -0.590
REMARK UNBOUND:                -0.590
REMARK  Name = 
REMARK  6 active torsions:
REMARK  status: ('A' for Active; 'I' for Inactive)
REMARK    1  A    between atoms: C_1  and  C_2
REMARK    2  A    between atoms: C_6  and  C_8
REMARK    3  A    between atoms: N_10  and  C_11
REMARK    4  A    between atoms: C_15  and  O_17
REMARK    5  A    between atoms: O_17  and  C_18
REMARK    6  A    between atoms: C_18  and  C_19
REMARK                            x       y       z     vdW  Elec       q    Type
REMARK                         _______ _______ _______ _____ _____    ______ ____
ROOT
ATOM      1  C   UNL     1     -30.713 -10.567  17.594  0.00  0.00    +0.037 A 
ATOM      2  C   UNL     1     -31.361  -9.450  18.138  0.00  0.00    +0.023 A 
ATOM      3  C   UNL     1     -31.046  -9.007  19.425  0.00  0.00    +0.005 A 
ATOM      4  C   UNL     1     -30.072  -9.669  20.174  0.00  0.00    +0.046 A 
ATOM      5  C   UNL     1     -29.394 -10.772  19.643  0.00  0.00    +0.123 A 
ATOM      6  C   UNL     1     -29.710 -11.212  18.342  0.00  0.00    +0.069 A 
ENDROOT
BRANCH   1   9
ATOM      7  C   UNL     1     -31.982 -12.043  15.967  0.00  0.00    +0.248 C 
ATOM      8  O   UNL     1     -32.656 -12.564  16.898  0.00  0.00    -0.270 OA
ATOM      9  N   UNL     1     -31.041 -10.992  16.261  0.00  0.00    -0.281 N 
ATOM     10  H   UNL     1     -30.598 -10.468  15.476  0.00  0.00    +0.155 HD
BRANCH   7  16
ATOM     11  C   UNL     1     -30.503 -14.797  12.014  0.00  0.00    +0.044 C 
ATOM     12  C   UNL     1     -31.494 -13.875  12.664  0.00  0.00    -0.050 A 
ATOM     13  C   UNL     1     -32.595 -13.400  11.938  0.00  0.00    +0.003 A 
ATOM     14  C   UNL     1     -33.488 -12.502  12.525  0.00  0.00    +0.001 A 
ATOM     15  C   UNL     1     -33.285 -12.066  13.837  0.00  0.00    +0.013 A 
ATOM     16  C   UNL     1     -32.185 -12.528  14.581  0.00  0.00    +0.037 A 
ATOM     17  C   UNL     1     -31.282 -13.424  13.976  0.00  0.00    +0.016 A 
ENDBRANCH   7  16
ENDBRANCH   1   9
BRANCH   5  18
ATOM     18  O   UNL     1     -28.417 -11.395  20.436  0.00  0.00    -0.483 OA
BRANCH  18  19
ATOM     19  C   UNL     1     -28.505 -12.717  20.969  0.00  0.00    +0.324 C 
BRANCH  19  20
ATOM     20  C   UNL     1     -27.533 -13.631  20.284  0.00  0.00    +0.248 C 
ATOM     21  N   UNL     1     -27.515 -15.027  20.579  0.00  0.00    -0.327 N 
ATOM     22  O   UNL     1     -26.737 -13.163  19.427  0.00  0.00    -0.272 OA
ATOM     23  H   UNL     1     -28.173 -15.436  21.278  0.00  0.00    +0.145 HD
ATOM     24  H   UNL     1     -26.834 -15.657  20.099  0.00  0.00    +0.145 HD
ENDBRANCH  19  20
ENDBRANCH  18  19
ENDBRANCH   5  18
TORSDOF 5
ENDMDL
MODEL 2
REMARK VINA RESULT:    -4.806      2.453      4.208
REMARK INTER + INTRA:          -6.800
REMARK INTER:                  -6.215
REMARK INTRA:                  -0.586
REMARK UNBOUND:                -0.590
REMARK  Name = 
REMARK  6 active torsions:
REMARK  status: ('A' for Active; 'I' for Inactive)
REMARK    1  A    between atoms: C_1  and  C_2
REMARK    2  A    between atoms: C_6  and  C_8
REMARK    3  A    between atoms: N_10  and  C_11
REMARK    4  A    between atoms: C_15  and  O_17
REMARK    5  A    between atoms: O_17  and  C_18
REMARK    6  A    between atoms: C_18  and  C_19
REMARK                            x       y       z     vdW  Elec       q    Type
REMARK                         _______ _______ _______ _____ _____    ______ ____
ROOT
ATOM      1  C   UNL     1     -28.878 -12.561  18.934  0.00  0.00    +0.037 A 
ATOM      2  C   UNL     1     -28.270 -13.511  19.765  0.00  0.00    +0.023 A 
ATOM      3  C   UNL     1     -28.202 -13.302  21.145  0.00  0.00    +0.005 A 
ATOM      4  C   UNL     1     -28.752 -12.149  21.707  0.00  0.00    +0.046 A 
ATOM      5  C   UNL     1     -29.386 -11.197  20.899  0.00  0.00    +0.123 A 
ATOM      6  C   UNL     1     -29.458 -11.415  19.509  0.00  0.00    +0.069 A 
ENDROOT
BRANCH   1   9
ATOM      7  C   UNL     1     -29.944 -13.654  16.907  0.00  0.00    +0.248 C 
ATOM      8  O   UNL     1     -30.880 -14.132  17.603  0.00  0.00    -0.270 OA
ATOM      9  N   UNL     1     -28.951 -12.807  17.520  0.00  0.00    -0.281 N 
ATOM     10  H   UNL     1     -28.269 -12.299  16.916  0.00  0.00    +0.155 HD
BRANCH   7  16
ATOM     11  C   UNL     1     -31.944 -13.451  12.286  0.00  0.00    +0.044 C 
ATOM     12  C   UNL     1     -30.837 -13.866  13.210  0.00  0.00    -0.050 A 
ATOM     13  C   UNL     1     -29.766 -14.632  12.728  0.00  0.00    +0.003 A 
ATOM     14  C   UNL     1     -28.763 -15.062  13.598  0.00  0.00    +0.001 A 
ATOM     15  C   UNL     1     -28.825 -14.740  14.956  0.00  0.00    +0.013 A 
ATOM     16  C   UNL     1     -29.892 -13.975  15.461  0.00  0.00    +0.037 A 
ATOM     17  C   UNL     1     -30.906 -13.556  14.578  0.00  0.00    +0.016 A 
ENDBRANCH   7  16
ENDBRANCH   1   9
BRANCH   5  18
ATOM     18  O   UNL     1     -29.931 -10.060  21.517  0.00  0.00    -0.483 OA
BRANCH  18  19
ATOM     19  C   UNL     1     -31.146  -9.415  21.134  0.00  0.00    +0.324 C 
BRANCH  19  20
ATOM     20  C   UNL     1     -30.871  -8.040  20.603  0.00  0.00    +0.248 C 
ATOM     21  N   UNL     1     -29.901  -7.199  21.227  0.00  0.00    -0.327 N 
ATOM     22  O   UNL     1     -31.492  -7.629  19.587  0.00  0.00    -0.272 OA
ATOM     23  H   UNL     1     -29.369  -7.524  22.064  0.00  0.00    +0.145 HD
ATOM     24  H   UNL     1     -29.716  -6.241  20.853  0.00  0.00    +0.145 HD
ENDBRANCH  19  20
ENDBRANCH  18  19
ENDBRANCH   5  18
TORSDOF 5
ENDMDL
MODEL 3
REMARK VINA RESULT:    -4.799      2.620      8.066
REMARK INTER + INTRA:          -6.791
REMARK INTER:                  -6.279
REMARK INTRA:                  -0.512
REMARK UNBOUND:                -0.590
REMARK  Name = 
REMARK  6 active torsions:
REMARK  status: ('A' for Active; 'I' for Inactive)
REMARK    1  A    between atoms: C_1  and  C_2
REMARK    2  A    between atoms: C_6  and  C_8
REMARK    3  A    between atoms: N_10  and  C_11
REMARK    4  A    between atoms: C_15  and  O_17
REMARK    5  A    between atoms: O_17  and  C_18
REMARK    6  A    between atoms: C_18  and  C_19
REMARK                            x       y       z     vdW  Elec       q    Type
REMARK                         _______ _______ _______ _____ _____    ______ ____
ROOT
ATOM      1  C   UNL     1     -29.649 -14.331  15.590  0.00  0.00    +0.037 A 
ATOM      2  C   UNL     1     -28.642 -14.675  14.679  0.00  0.00    +0.023 A 
ATOM      3  C   UNL     1     -28.904 -14.687  13.307  0.00  0.00    +0.005 A 
ATOM      4  C   UNL     1     -30.171 -14.341  12.833  0.00  0.00    +0.046 A 
ATOM      5  C   UNL     1     -31.186 -13.971  13.723  0.00  0.00    +0.123 A 
ATOM      6  C   UNL     1     -30.915 -13.954  15.105  0.00  0.00    +0.069 A 
ENDROOT
BRANCH   1   9
ATOM      7  C   UNL     1     -29.161 -13.097  17.753  0.00  0.00    +0.248 C 
ATOM      8  O   UNL     1     -29.373 -11.977  17.213  0.00  0.00    -0.270 OA
ATOM      9  N   UNL     1     -29.349 -14.309  16.996  0.00  0.00    -0.281 N 
ATOM     10  H   UNL     1     -29.316 -15.229  17.486  0.00  0.00    +0.155 HD
BRANCH   7  16
ATOM     11  C   UNL     1     -25.742 -14.251  21.271  0.00  0.00    +0.044 C 
ATOM     12  C   UNL     1     -27.071 -13.669  20.885  0.00  0.00    -0.050 A 
ATOM     13  C   UNL     1     -27.955 -13.216  21.874  0.00  0.00    +0.003 A 
ATOM     14  C   UNL     1     -29.212 -12.722  21.519  0.00  0.00    +0.001 A 
ATOM     15  C   UNL     1     -29.598 -12.684  20.177  0.00  0.00    +0.013 A 
ATOM     16  C   UNL     1     -28.726 -13.136  19.170  0.00  0.00    +0.037 A 
ATOM     17  C   UNL     1     -27.466 -13.645  19.538  0.00  0.00    +0.016 A 
ENDBRANCH   7  16
ENDBRANCH   1   9
BRANCH   5  18
ATOM     18  O   UNL     1     -32.440 -13.624  13.192  0.00  0.00    -0.483 OA
BRANCH  18  19
ATOM     19  C   UNL     1     -32.738 -12.408  12.506  0.00  0.00    +0.324 C 
BRANCH  19  20
ATOM     20  C   UNL     1     -34.083 -11.885  12.915  0.00  0.00    +0.248 C 
ATOM     21  N   UNL     1     -35.006 -11.407  11.938  0.00  0.00    -0.327 N 
ATOM     22  O   UNL     1     -34.406 -11.883  14.133  0.00  0.00    -0.272 OA
ATOM     23  H   UNL     1     -34.762 -11.409  10.923  0.00  0.00    +0.145 HD
ATOM     24  H   UNL     1     -35.941 -11.042  12.230  0.00  0.00    +0.145 HD
ENDBRANCH  19  20
ENDBRANCH  18  19
ENDBRANCH   5  18
TORSDOF 5
ENDMDL
MODEL 4
REMARK VINA RESULT:    -4.769      1.920      2.247
REMARK INTER + INTRA:          -6.753
REMARK INTER:                  -6.214
REMARK INTRA:                  -0.539
REMARK UNBOUND:                -0.590
REMARK  Name = 
REMARK  6 active torsions:
REMARK  status: ('A' for Active; 'I' for Inactive)
REMARK    1  A    between atoms: C_1  and  C_2
REMARK    2  A    between atoms: C_6  and  C_8
REMARK    3  A    between atoms: N_10  and  C_11
REMARK    4  A    between atoms: C_15  and  O_17
REMARK    5  A    between atoms: O_17  and  C_18
REMARK    6  A    between atoms: C_18  and  C_19
REMARK                            x       y       z     vdW  Elec       q    Type
REMARK                         _______ _______ _______ _____ _____    ______ ____
ROOT
ATOM      1  C   UNL     1     -31.608 -12.329  18.766  0.00  0.00    +0.037 A 
ATOM      2  C   UNL     1     -32.006 -11.377  19.713  0.00  0.00    +0.023 A 
ATOM      3  C   UNL     1     -31.360 -11.297  20.949  0.00  0.00    +0.005 A 
ATOM      4  C   UNL     1     -30.302 -12.158  21.244  0.00  0.00    +0.046 A 
ATOM      5  C   UNL     1     -29.871 -13.102  20.304  0.00  0.00    +0.123 A 
ATOM      6  C   UNL     1     -30.521 -13.175  19.056  0.00  0.00    +0.069 A 
ENDROOT
BRANCH   1   9
ATOM      7  C   UNL     1     -32.054 -11.427  16.436  0.00  0.00    +0.248 C 
ATOM      8  O   UNL     1     -31.152 -10.554  16.555  0.00  0.00    -0.270 OA
ATOM      9  N   UNL     1     -32.276 -12.380  17.494  0.00  0.00    -0.281 N 
ATOM     10  H   UNL     1     -32.918 -13.186  17.331  0.00  0.00    +0.155 HD
BRANCH   7  16
ATOM     11  C   UNL     1     -33.145 -13.418  11.938  0.00  0.00    +0.044 C 
ATOM     12  C   UNL     1     -33.422 -12.420  13.024  0.00  0.00    -0.050 A 
ATOM     13  C   UNL     1     -34.413 -11.444  12.847  0.00  0.00    +0.003 A 
ATOM     14  C   UNL     1     -34.636 -10.484  13.836  0.00  0.00    +0.001 A 
ATOM     15  C   UNL     1     -33.867 -10.484  15.002  0.00  0.00    +0.013 A 
ATOM     16  C   UNL     1     -32.866 -11.452  15.196  0.00  0.00    +0.037 A 
ATOM     17  C   UNL     1     -32.639 -12.409  14.189  0.00  0.00    +0.016 A 
ENDBRANCH   7  16
ENDBRANCH   1   9
BRANCH   5  18
ATOM     18  O   UNL     1     -28.796 -13.937  20.649  0.00  0.00    -0.483 OA
BRANCH  18  19
ATOM     19  C   UNL     1     -27.687 -13.562  21.465  0.00  0.00    +0.324 C 
BRANCH  19  20
ATOM     20  C   UNL     1     -26.431 -14.233  20.994  0.00  0.00    +0.248 C 
ATOM     21  N   UNL     1     -25.673 -15.062  21.875  0.00  0.00    -0.327 N 
ATOM     22  O   UNL     1     -26.050 -14.077  19.803  0.00  0.00    -0.272 OA
ATOM     23  H   UNL     1     -25.977 -15.213  22.862  0.00  0.00    +0.145 HD
ATOM     24  H   UNL     1     -24.798 -15.525  21.541  0.00  0.00    +0.145 HD
ENDBRANCH  19  20
ENDBRANCH  18  19
ENDBRANCH   5  18
TORSDOF 5
ENDMDL
MODEL 5
REMARK VINA RESULT:    -4.610      3.245      3.814
REMARK INTER + INTRA:          -6.547
REMARK INTER:                  -5.857
REMARK INTRA:                  -0.689
REMARK UNBOUND:                -0.590
REMARK  Name = 
REMARK  6 active torsions:
REMARK  status: ('A' for Active; 'I' for Inactive)
REMARK    1  A    between atoms: C_1  and  C_2
REMARK    2  A    between atoms: C_6  and  C_8
REMARK    3  A    between atoms: N_10  and  C_11
REMARK    4  A    between atoms: C_15  and  O_17
REMARK    5  A    between atoms: O_17  and  C_18
REMARK    6  A    between atoms: C_18  and  C_19
REMARK                            x       y       z     vdW  Elec       q    Type
REMARK                         _______ _______ _______ _____ _____    ______ ____
ROOT
ATOM      1  C   UNL     1     -33.679  -9.219  17.009  0.00  0.00    +0.037 A 
ATOM      2  C   UNL     1     -34.539  -8.117  16.923  0.00  0.00    +0.023 A 
ATOM      3  C   UNL     1     -34.879  -7.395  18.070  0.00  0.00    +0.005 A 
ATOM      4  C   UNL     1     -34.352  -7.760  19.310  0.00  0.00    +0.046 A 
ATOM      5  C   UNL     1     -33.472  -8.843  19.417  0.00  0.00    +0.123 A 
ATOM      6  C   UNL     1     -33.127  -9.565  18.257  0.00  0.00    +0.069 A 
ENDROOT
BRANCH   1   9
ATOM      7  C   UNL     1     -33.972 -11.156  15.396  0.00  0.00    +0.248 C 
ATOM      8  O   UNL     1     -34.973 -11.589  16.030  0.00  0.00    -0.270 OA
ATOM      9  N   UNL     1     -33.330  -9.935  15.813  0.00  0.00    -0.281 N 
ATOM     10  H   UNL     1     -32.601  -9.507  15.203  0.00  0.00    +0.155 HD
BRANCH   7  16
ATOM     11  C   UNL     1     -30.439 -13.942  13.127  0.00  0.00    +0.044 C 
ATOM     12  C   UNL     1     -31.791 -13.291  13.118  0.00  0.00    -0.050 A 
ATOM     13  C   UNL     1     -32.586 -13.335  11.964  0.00  0.00    +0.003 A 
ATOM     14  C   UNL     1     -33.822 -12.686  11.938  0.00  0.00    +0.001 A 
ATOM     15  C   UNL     1     -34.269 -11.980  13.058  0.00  0.00    +0.013 A 
ATOM     16  C   UNL     1     -33.484 -11.920  14.224  0.00  0.00    +0.037 A 
ATOM     17  C   UNL     1     -32.234 -12.567  14.237  0.00  0.00    +0.016 A 
ENDBRANCH   7  16
ENDBRANCH   1   9
BRANCH   5  18
ATOM     18  O   UNL     1     -32.964  -9.163  20.687  0.00  0.00    -0.483 OA
BRANCH  18  19
ATOM     19  C   UNL     1     -32.120  -8.322  21.474  0.00  0.00    +0.324 C 
BRANCH  19  20
ATOM     20  C   UNL     1     -30.696  -8.421  21.014  0.00  0.00    +0.248 C 
ATOM     21  N   UNL     1     -29.864  -9.497  21.448  0.00  0.00    -0.327 N 
ATOM     22  O   UNL     1     -30.235  -7.555  20.223  0.00  0.00    -0.272 OA
ATOM     23  H   UNL     1     -30.230 -10.230  22.095  0.00  0.00    +0.145 HD
ATOM     24  H   UNL     1     -28.873  -9.559  21.126  0.00  0.00    +0.145 HD
ENDBRANCH  19  20
ENDBRANCH  18  19
ENDBRANCH   5  18
TORSDOF 5
ENDMDL
MODEL 6
REMARK VINA RESULT:    -4.514      2.607      4.166
REMARK INTER + INTRA:          -6.423
REMARK INTER:                  -5.813
REMARK INTRA:                  -0.610
REMARK UNBOUND:                -0.590
REMARK  Name = 
REMARK  6 active torsions:
REMARK  status: ('A' for Active; 'I' for Inactive)
REMARK    1  A    between atoms: C_1  and  C_2
REMARK    2  A    between atoms: C_6  and  C_8
REMARK    3  A    between atoms: N_10  and  C_11
REMARK    4  A    between atoms: C_15  and  O_17
REMARK    5  A    between atoms: O_17  and  C_18
REMARK    6  A    between atoms: C_18  and  C_19
REMARK                            x       y       z     vdW  Elec       q    Type
REMARK                         _______ _______ _______ _____ _____    ______ ____
ROOT
ATOM      1  C   UNL     1     -30.498 -12.971  18.299  0.00  0.00    +0.037 A 
ATOM      2  C   UNL     1     -29.206 -13.132  18.818  0.00  0.00    +0.023 A 
ATOM      3  C   UNL     1     -28.929 -12.785  20.143  0.00  0.00    +0.005 A 
ATOM      4  C   UNL     1     -29.942 -12.288  20.964  0.00  0.00    +0.046 A 
ATOM      5  C   UNL     1     -31.245 -12.141  20.475  0.00  0.00    +0.123 A 
ATOM      6  C   UNL     1     -31.522 -12.497  19.140  0.00  0.00    +0.069 A 
ENDROOT
BRANCH   1   9
ATOM      7  C   UNL     1     -30.911 -12.407  15.860  0.00  0.00    +0.248 C 
ATOM      8  O   UNL     1     -30.692 -11.181  16.062  0.00  0.00    -0.270 OA
ATOM      9  N   UNL     1     -30.763 -13.351  16.939  0.00  0.00    -0.281 N 
ATOM     10  H   UNL     1     -30.802 -14.373  16.734  0.00  0.00    +0.155 HD
BRANCH   7  16
ATOM     11  C   UNL     1     -34.070 -12.233  11.938  0.00  0.00    +0.044 C 
ATOM     12  C   UNL     1     -32.822 -12.758  12.584  0.00  0.00    -0.050 A 
ATOM     13  C   UNL     1     -32.051 -13.735  11.938  0.00  0.00    +0.003 A 
ATOM     14  C   UNL     1     -30.918 -14.261  12.561  0.00  0.00    +0.001 A 
ATOM     15  C   UNL     1     -30.551 -13.824  13.836  0.00  0.00    +0.013 A 
ATOM     16  C   UNL     1     -31.313 -12.848  14.503  0.00  0.00    +0.037 A 
ATOM     17  C   UNL     1     -32.461 -12.332  13.872  0.00  0.00    +0.016 A 
ENDBRANCH   7  16
ENDBRANCH   1   9
BRANCH   5  18
ATOM     18  O   UNL     1     -32.228 -11.644  21.346  0.00  0.00    -0.483 OA
BRANCH  18  19
ATOM     19  C   UNL     1     -32.521 -10.263  21.559  0.00  0.00    +0.324 C 
BRANCH  19  20
ATOM     20  C   UNL     1     -33.865  -9.913  20.992  0.00  0.00    +0.248 C 
ATOM     21  N   UNL     1     -35.053 -10.110  21.759  0.00  0.00    -0.327 N 
ATOM     22  O   UNL     1     -33.944  -9.426  19.833  0.00  0.00    -0.272 OA
ATOM     23  H   UNL     1     -35.008 -10.504  22.724  0.00  0.00    +0.145 HD
ATOM     24  H   UNL     1     -35.986  -9.866  21.356  0.00  0.00    +0.145 HD
ENDBRANCH  19  20
ENDBRANCH  18  19
ENDBRANCH   5  18
TORSDOF 5
ENDMDL
MODEL 7
REMARK VINA RESULT:    -4.465      2.377      4.014
REMARK INTER + INTRA:          -6.360
REMARK INTER:                  -5.783
REMARK INTRA:                  -0.577
REMARK UNBOUND:                -0.590
REMARK  Name = 
REMARK  6 active torsions:
REMARK  status: ('A' for Active; 'I' for Inactive)
REMARK    1  A    between atoms: C_1  and  C_2
REMARK    2  A    between atoms: C_6  and  C_8
REMARK    3  A    between atoms: N_10  and  C_11
REMARK    4  A    between atoms: C_15  and  O_17
REMARK    5  A    between atoms: O_17  and  C_18
REMARK    6  A    between atoms: C_18  and  C_19
REMARK                            x       y       z     vdW  Elec       q    Type
REMARK                         _______ _______ _______ _____ _____    ______ ____
ROOT
ATOM      1  C   UNL     1     -29.583 -12.174  18.408  0.00  0.00    +0.037 A 
ATOM      2  C   UNL     1     -29.124 -13.198  19.248  0.00  0.00    +0.023 A 
ATOM      3  C   UNL     1     -28.968 -12.971  20.617  0.00  0.00    +0.005 A 
ATOM      4  C   UNL     1     -29.282 -11.725  21.162  0.00  0.00    +0.046 A 
ATOM      5  C   UNL     1     -29.765 -10.695  20.348  0.00  0.00    +0.123 A 
ATOM      6  C   UNL     1     -29.926 -10.928  18.967  0.00  0.00    +0.069 A 
ENDROOT
BRANCH   1   9
ATOM      7  C   UNL     1     -30.936 -13.035  16.442  0.00  0.00    +0.248 C 
ATOM      8  O   UNL     1     -31.940 -13.252  17.173  0.00  0.00    -0.270 OA
ATOM      9  N   UNL     1     -29.752 -12.435  17.005  0.00  0.00    -0.281 N 
ATOM     10  H   UNL     1     -28.985 -12.125  16.371  0.00  0.00    +0.155 HD
BRANCH   7  16
ATOM     11  C   UNL     1     -33.189 -12.780  11.942  0.00  0.00    +0.044 C 
ATOM     12  C   UNL     1     -32.070 -13.270  12.814  0.00  0.00    -0.050 A 
ATOM     13  C   UNL     1     -31.106 -14.145  12.296  0.00  0.00    +0.003 A 
ATOM     14  C   UNL     1     -30.094 -14.642  13.120  0.00  0.00    +0.001 A 
ATOM     15  C   UNL     1     -30.042 -14.276  14.467  0.00  0.00    +0.013 A 
ATOM     16  C   UNL     1     -31.003 -13.401  15.007  0.00  0.00    +0.037 A 
ATOM     17  C   UNL     1     -32.027 -12.916  14.172  0.00  0.00    +0.016 A 
ENDBRANCH   7  16
ENDBRANCH   1   9
BRANCH   5  18
ATOM     18  O   UNL     1     -30.074  -9.463  20.948  0.00  0.00    -0.483 OA
BRANCH  18  19
ATOM     19  C   UNL     1     -31.175  -8.626  20.596  0.00  0.00    +0.324 C 
BRANCH  19  20
ATOM     20  C   UNL     1     -30.813  -7.179  20.752  0.00  0.00    +0.248 C 
ATOM     21  N   UNL     1     -29.680  -6.793  21.531  0.00  0.00    -0.327 N 
ATOM     22  O   UNL     1     -31.505  -6.298  20.177  0.00  0.00    -0.272 OA
ATOM     23  H   UNL     1     -29.088  -7.508  22.007  0.00  0.00    +0.145 HD
ATOM     24  H   UNL     1     -29.435  -5.783  21.637  0.00  0.00    +0.145 HD
ENDBRANCH  19  20
ENDBRANCH  18  19
ENDBRANCH   5  18
TORSDOF 5
ENDMDL
MODEL 8
REMARK VINA RESULT:    -4.349      2.784      7.945
REMARK INTER + INTRA:          -6.210
REMARK INTER:                  -5.675
REMARK INTRA:                  -0.535
REMARK UNBOUND:                -0.590
REMARK  Name = 
REMARK  6 active torsions:
REMARK  status: ('A' for Active; 'I' for Inactive)
REMARK    1  A    between atoms: C_1  and  C_2
REMARK    2  A    between atoms: C_6  and  C_8
REMARK    3  A    between atoms: N_10  and  C_11
REMARK    4  A    between atoms: C_15  and  O_17
REMARK    5  A    between atoms: O_17  and  C_18
REMARK    6  A    between atoms: C_18  and  C_19
REMARK                            x       y       z     vdW  Elec       q    Type
REMARK                         _______ _______ _______ _____ _____    ______ ____
ROOT
ATOM      1  C   UNL     1     -30.244 -13.457  15.542  0.00  0.00    +0.037 A 
ATOM      2  C   UNL     1     -29.179 -14.317  15.243  0.00  0.00    +0.023 A 
ATOM      3  C   UNL     1     -29.107 -14.947  13.999  0.00  0.00    +0.005 A 
ATOM      4  C   UNL     1     -30.091 -14.713  13.036  0.00  0.00    +0.046 A 
ATOM      5  C   UNL     1     -31.152 -13.839  13.303  0.00  0.00    +0.123 A 
ATOM      6  C   UNL     1     -31.218 -13.201  14.558  0.00  0.00    +0.069 A 
ENDROOT
BRANCH   1   9
ATOM      7  C   UNL     1     -30.715 -13.458  18.035  0.00  0.00    +0.248 C 
ATOM      8  O   UNL     1     -30.966 -14.694  18.031  0.00  0.00    -0.270 OA
ATOM      9  N   UNL     1     -30.287 -12.807  16.823  0.00  0.00    -0.281 N 
ATOM     10  H   UNL     1     -29.942 -11.823  16.864  0.00  0.00    +0.155 HD
BRANCH   7  16
ATOM     11  C   UNL     1     -33.524 -10.793  21.261  0.00  0.00    +0.044 C 
ATOM     12  C   UNL     1     -32.217 -11.428  20.887  0.00  0.00    -0.050 A 
ATOM     13  C   UNL     1     -31.090 -11.253  21.703  0.00  0.00    +0.003 A 
ATOM     14  C   UNL     1     -29.861 -11.801  21.328  0.00  0.00    +0.001 A 
ATOM     15  C   UNL     1     -29.746 -12.518  20.136  0.00  0.00    +0.013 A 
ATOM     16  C   UNL     1     -30.863 -12.702  19.302  0.00  0.00    +0.037 A 
ATOM     17  C   UNL     1     -32.096 -12.136  19.680  0.00  0.00    +0.016 A 
ENDBRANCH   7  16
ENDBRANCH   1   9
BRANCH   5  18
ATOM     18  O   UNL     1     -32.109 -13.632  12.297  0.00  0.00    -0.483 OA
BRANCH  18  19
ATOM     19  C   UNL     1     -32.683 -12.371  11.950  0.00  0.00    +0.324 C 
BRANCH  19  20
ATOM     20  C   UNL     1     -34.157 -12.366  12.225  0.00  0.00    +0.248 C 
ATOM     21  N   UNL     1     -34.947 -11.212  11.939  0.00  0.00    -0.327 N 
ATOM     22  O   UNL     1     -34.706 -13.397  12.697  0.00  0.00    -0.272 OA
ATOM     23  H   UNL     1     -34.514 -10.352  11.539  0.00  0.00    +0.145 HD
ATOM     24  H   UNL     1     -35.973 -11.216  12.135  0.00  0.00    +0.145 HD
ENDBRANCH  19  20
ENDBRANCH  18  19
ENDBRANCH   5  18
TORSDOF 5
ENDMDL
