MODEL 1
REMARK VINA RESULT:    -5.340      0.000      0.000
REMARK INTER + INTRA:          -9.211
REMARK INTER:                  -7.214
REMARK INTRA:                  -1.997
REMARK UNBOUND:                -1.997
REMARK  Name = 
REMARK  9 active torsions:
REMARK  status: ('A' for Active; 'I' for Inactive)
REMARK    1  A    between atoms: C_1  and  C_2
REMARK    2  A    between atoms: C_6  and  C_9
REMARK    3  A    between atoms: C_7  and  C_8
REMARK    4  A    between atoms: C_9  and  C_10
REMARK    5  A    between atoms: C_9  and  N_11
REMARK    6  A    between atoms: C_12  and  C_14
REMARK    7  A    between atoms: C_19  and  O_20
REMARK    8  A    between atoms: O_20  and  C_21
REMARK    9  A    between atoms: C_21  and  C_22
REMARK                            x       y       z     vdW  Elec       q    Type
REMARK                         _______ _______ _______ _____ _____    ______ ____
ROOT
ATOM      1  N   UNL     1     -30.490 -11.085  17.557  0.00  0.00    -0.305 N 
ATOM      2  C   UNL     1     -30.815 -10.319  16.384  0.00  0.00    +0.248 C 
ATOM      3  O   UNL     1     -30.265  -9.199  16.196  0.00  0.00    -0.270 OA
ATOM      4  H   UNL     1     -31.058 -11.937  17.767  0.00  0.00    +0.150 HD
ENDROOT
BRANCH   2   5
ATOM      5  C   UNL     1     -31.838 -10.792  15.420  0.00  0.00    +0.078 A 
ATOM      6  C   UNL     1     -32.973  -9.994  15.192  0.00  0.00    +0.017 A 
ATOM      7  C   UNL     1     -33.975 -10.417  14.319  0.00  0.00    +0.001 A 
ATOM      8  C   UNL     1     -33.856 -11.638  13.658  0.00  0.00    +0.004 A 
ATOM      9  C   UNL     1     -32.727 -12.435  13.857  0.00  0.00    +0.046 A 
ATOM     10  C   UNL     1     -31.700 -12.018  14.729  0.00  0.00    +0.133 A 
BRANCH  10  11
ATOM     11  O   UNL     1     -30.527 -12.772  14.901  0.00  0.00    -0.482 OA
BRANCH  11  12
ATOM     12  C   UNL     1     -30.463 -14.139  15.306  0.00  0.00    +0.324 C 
BRANCH  12  13
ATOM     13  C   UNL     1     -29.550 -14.291  16.483  0.00  0.00    +0.248 C 
ATOM     14  N   UNL     1     -30.044 -14.821  17.713  0.00  0.00    -0.327 N 
ATOM     15  O   UNL     1     -28.341 -13.951  16.390  0.00  0.00    -0.272 OA
ATOM     16  H   UNL     1     -31.048 -15.095  17.807  0.00  0.00    +0.145 HD
ATOM     17  H   UNL     1     -29.408 -14.936  18.532  0.00  0.00    +0.145 HD
ENDBRANCH  12  13
ENDBRANCH  11  12
ENDBRANCH  10  11
ENDBRANCH   2   5
BRANCH   1  18
ATOM     18  C   UNL     1     -29.576 -10.580  18.588  0.00  0.00    +0.101 C 
ATOM     19  C   UNL     1     -30.248  -9.523  19.475  0.00  0.00    +0.033 C 
BRANCH  18  25
ATOM     20  C   UNL     1     -25.732 -13.658  20.196  0.00  0.00    +0.044 C 
ATOM     21  C   UNL     1     -27.161 -13.175  20.209  0.00  0.00    -0.047 A 
ATOM     22  C   UNL     1     -28.057 -13.781  21.101  0.00  0.00    +0.003 A 
ATOM     23  C   UNL     1     -29.382 -13.370  21.160  0.00  0.00    +0.001 A 
ATOM     24  C   UNL     1     -29.833 -12.342  20.341  0.00  0.00    +0.006 A 
ATOM     25  C   UNL     1     -28.970 -11.700  19.433  0.00  0.00    -0.024 A 
ATOM     26  C   UNL     1     -27.617 -12.155  19.327  0.00  0.00    -0.043 A 
ATOM     27  C   UNL     1     -26.631 -11.536  18.359  0.00  0.00    +0.044 C 
ENDBRANCH  18  25
ENDBRANCH   1  18
TORSDOF 6
ENDMDL
MODEL 2
REMARK VINA RESULT:    -4.831      1.537      6.923
REMARK INTER + INTRA:          -8.523
REMARK INTER:                  -6.922
REMARK INTRA:                  -1.601
REMARK UNBOUND:                -1.997
REMARK  Name = 
REMARK  9 active torsions:
REMARK  status: ('A' for Active; 'I' for Inactive)
REMARK    1  A    between atoms: C_1  and  C_2
REMARK    2  A    between atoms: C_6  and  C_9
REMARK    3  A    between atoms: C_7  and  C_8
REMARK    4  A    between atoms: C_9  and  C_10
REMARK    5  A    between atoms: C_9  and  N_11
REMARK    6  A    between atoms: C_12  and  C_14
REMARK    7  A    between atoms: C_19  and  O_20
REMARK    8  A    between atoms: O_20  and  C_21
REMARK    9  A    between atoms: C_21  and  C_22
REMARK                            x       y       z     vdW  Elec       q    Type
REMARK                         _______ _______ _______ _____ _____    ______ ____
ROOT
ATOM      1  N   UNL     1     -30.344 -13.012  17.101  0.00  0.00    -0.305 N 
ATOM      2  C   UNL     1     -29.043 -13.055  17.712  0.00  0.00    +0.248 C 
ATOM      3  O   UNL     1     -28.029 -13.323  17.010  0.00  0.00    -0.270 OA
ATOM      4  H   UNL     1     -31.181 -12.930  17.720  0.00  0.00    +0.150 HD
ENDROOT
BRANCH   2   5
ATOM      5  C   UNL     1     -28.877 -12.852  19.172  0.00  0.00    +0.078 A 
ATOM      6  C   UNL     1     -27.870 -13.566  19.844  0.00  0.00    +0.017 A 
ATOM      7  C   UNL     1     -27.700 -13.431  21.222  0.00  0.00    +0.001 A 
ATOM      8  C   UNL     1     -28.529 -12.575  21.946  0.00  0.00    +0.004 A 
ATOM      9  C   UNL     1     -29.521 -11.843  21.294  0.00  0.00    +0.046 A 
ATOM     10  C   UNL     1     -29.700 -11.961  19.899  0.00  0.00    +0.133 A 
BRANCH  10  11
ATOM     11  O   UNL     1     -30.651 -11.190  19.209  0.00  0.00    -0.482 OA
BRANCH  11  12
ATOM     12  C   UNL     1     -30.562  -9.790  18.947  0.00  0.00    +0.324 C 
BRANCH  12  13
ATOM     13  C   UNL     1     -30.843  -9.512  17.503  0.00  0.00    +0.248 C 
ATOM     14  N   UNL     1     -31.989  -8.749  17.128  0.00  0.00    -0.327 N 
ATOM     15  O   UNL     1     -30.066  -9.951  16.614  0.00  0.00    -0.272 OA
ATOM     16  H   UNL     1     -32.649  -8.391  17.854  0.00  0.00    +0.145 HD
ATOM     17  H   UNL     1     -32.184  -8.547  16.123  0.00  0.00    +0.145 HD
ENDBRANCH  12  13
ENDBRANCH  11  12
ENDBRANCH  10  11
ENDBRANCH   2   5
BRANCH   1  18
ATOM     18  C   UNL     1     -30.549 -13.334  15.684  0.00  0.00    +0.101 C 
ATOM     19  C   UNL     1     -30.445 -14.842  15.423  0.00  0.00    +0.033 C 
BRANCH  18  25
ATOM     20  C   UNL     1     -33.932 -12.166  11.938  0.00  0.00    +0.044 C 
ATOM     21  C   UNL     1     -33.481 -12.204  13.377  0.00  0.00    -0.047 A 
ATOM     22  C   UNL     1     -34.347 -11.697  14.356  0.00  0.00    +0.003 A 
ATOM     23  C   UNL     1     -33.986 -11.715  15.697  0.00  0.00    +0.001 A 
ATOM     24  C   UNL     1     -32.762 -12.247  16.085  0.00  0.00    +0.006 A 
ATOM     25  C   UNL     1     -31.861 -12.771  15.139  0.00  0.00    -0.024 A 
ATOM     26  C   UNL     1     -32.203 -12.707  13.751  0.00  0.00    -0.043 A 
ATOM     27  C   UNL     1     -31.280 -13.225  12.668  0.00  0.00    +0.044 C 
ENDBRANCH  18  25
ENDBRANCH   1  18
TORSDOF 6
ENDMDL
MODEL 3
REMARK VINA RESULT:    -4.793      1.532      1.987
REMARK INTER + INTRA:          -8.472
REMARK INTER:                  -5.908
REMARK INTRA:                  -2.563
REMARK UNBOUND:                -1.997
REMARK  Name = 
REMARK  9 active torsions:
REMARK  status: ('A' for Active; 'I' for Inactive)
REMARK    1  A    between atoms: C_1  and  C_2
REMARK    2  A    between atoms: C_6  and  C_9
REMARK    3  A    between atoms: C_7  and  C_8
REMARK    4  A    between atoms: C_9  and  C_10
REMARK    5  A    between atoms: C_9  and  N_11
REMARK    6  A    between atoms: C_12  and  C_14
REMARK    7  A    between atoms: C_19  and  O_20
REMARK    8  A    between atoms: O_20  and  C_21
REMARK    9  A    between atoms: C_21  and  C_22
REMARK                            x       y       z     vdW  Elec       q    Type
REMARK                         _______ _______ _______ _____ _____    ______ ____
ROOT
ATOM      1  N   UNL     1     -32.358 -11.579  16.855  0.00  0.00    -0.305 N 
ATOM      2  C   UNL     1     -32.522 -10.773  15.675  0.00  0.00    +0.248 C 
ATOM      3  O   UNL     1     -32.345  -9.525  15.740  0.00  0.00    -0.270 OA
ATOM      4  H   UNL     1     -32.646 -12.583  16.814  0.00  0.00    +0.150 HD
ENDROOT
BRANCH   2   5
ATOM      5  C   UNL     1     -32.959 -11.374  14.392  0.00  0.00    +0.078 A 
ATOM      6  C   UNL     1     -34.144 -10.908  13.796  0.00  0.00    +0.017 A 
ATOM      7  C   UNL     1     -34.610 -11.469  12.607  0.00  0.00    +0.001 A 
ATOM      8  C   UNL     1     -33.896 -12.497  11.993  0.00  0.00    +0.004 A 
ATOM      9  C   UNL     1     -32.707 -12.959  12.560  0.00  0.00    +0.046 A 
ATOM     10  C   UNL     1     -32.217 -12.397  13.757  0.00  0.00    +0.133 A 
BRANCH  10  11
ATOM     11  O   UNL     1     -30.993 -12.802  14.316  0.00  0.00    -0.482 OA
BRANCH  11  12
ATOM     12  C   UNL     1     -30.611 -14.146  14.607  0.00  0.00    +0.324 C 
BRANCH  12  13
ATOM     13  C   UNL     1     -30.658 -14.393  16.083  0.00  0.00    +0.248 C 
ATOM     14  N   UNL     1     -29.457 -14.668  16.804  0.00  0.00    -0.327 N 
ATOM     15  O   UNL     1     -31.759 -14.358  16.693  0.00  0.00    -0.272 OA
ATOM     16  H   UNL     1     -28.539 -14.714  16.309  0.00  0.00    +0.145 HD
ATOM     17  H   UNL     1     -29.486 -14.833  17.835  0.00  0.00    +0.145 HD
ENDBRANCH  12  13
ENDBRANCH  11  12
ENDBRANCH  10  11
ENDBRANCH   2   5
BRANCH   1  18
ATOM     18  C   UNL     1     -32.049 -10.990  18.163  0.00  0.00    +0.101 C 
ATOM     19  C   UNL     1     -33.290 -10.922  19.063  0.00  0.00    +0.033 C 
BRANCH  18  25
ATOM     20  C   UNL     1     -27.056 -12.018  19.088  0.00  0.00    +0.044 C 
ATOM     21  C   UNL     1     -28.534 -12.212  19.323  0.00  0.00    -0.047 A 
ATOM     22  C   UNL     1     -28.934 -13.123  20.311  0.00  0.00    +0.003 A 
ATOM     23  C   UNL     1     -30.280 -13.334  20.575  0.00  0.00    +0.001 A 
ATOM     24  C   UNL     1     -31.250 -12.633  19.868  0.00  0.00    +0.006 A 
ATOM     25  C   UNL     1     -30.898 -11.705  18.870  0.00  0.00    -0.024 A 
ATOM     26  C   UNL     1     -29.514 -11.522  18.555  0.00  0.00    -0.043 A 
ATOM     27  C   UNL     1     -29.051 -10.562  17.479  0.00  0.00    +0.044 C 
ENDBRANCH  18  25
ENDBRANCH   1  18
TORSDOF 6
ENDMDL
MODEL 4
REMARK VINA RESULT:    -4.486      3.082      4.703
REMARK INTER + INTRA:          -8.056
REMARK INTER:                  -6.165
REMARK INTRA:                  -1.892
REMARK UNBOUND:                -1.997
REMARK  Name = 
REMARK  9 active torsions:
REMARK  status: ('A' for Active; 'I' for Inactive)
REMARK    1  A    between atoms: C_1  and  C_2
REMARK    2  A    between atoms: C_6  and  C_9
REMARK    3  A    between atoms: C_7  and  C_8
REMARK    4  A    between atoms: C_9  and  C_10
REMARK    5  A    between atoms: C_9  and  N_11
REMARK    6  A    between atoms: C_12  and  C_14
REMARK    7  A    between atoms: C_19  and  O_20
REMARK    8  A    between atoms: O_20  and  C_21
REMARK    9  A    between atoms: C_21  and  C_22
REMARK                            x       y       z     vdW  Elec       q    Type
REMARK                         _______ _______ _______ _____ _____    ______ ____
ROOT
ATOM      1  N   UNL     1     -32.770 -11.234  17.035  0.00  0.00    -0.305 N 
ATOM      2  C   UNL     1     -33.739 -11.663  16.063  0.00  0.00    +0.248 C 
ATOM      3  O   UNL     1     -34.948 -11.795  16.400  0.00  0.00    -0.270 OA
ATOM      4  H   UNL     1     -31.758 -11.269  16.777  0.00  0.00    +0.150 HD
ENDROOT
BRANCH   2   5
ATOM      5  C   UNL     1     -33.331 -12.016  14.682  0.00  0.00    +0.078 A 
ATOM      6  C   UNL     1     -34.254 -11.833  13.637  0.00  0.00    +0.017 A 
ATOM      7  C   UNL     1     -33.924 -12.184  12.327  0.00  0.00    +0.001 A 
ATOM      8  C   UNL     1     -32.667 -12.716  12.042  0.00  0.00    +0.004 A 
ATOM      9  C   UNL     1     -31.732 -12.887  13.064  0.00  0.00    +0.046 A 
ATOM     10  C   UNL     1     -32.046 -12.529  14.391  0.00  0.00    +0.133 A 
BRANCH  10  11
ATOM     11  O   UNL     1     -31.101 -12.635  15.427  0.00  0.00    -0.482 OA
BRANCH  11  12
ATOM     12  C   UNL     1     -30.332 -13.795  15.742  0.00  0.00    +0.324 C 
BRANCH  12  13
ATOM     13  C   UNL     1     -30.848 -14.438  16.992  0.00  0.00    +0.248 C 
ATOM     14  N   UNL     1     -29.965 -14.703  18.081  0.00  0.00    -0.327 N 
ATOM     15  O   UNL     1     -32.066 -14.747  17.085  0.00  0.00    -0.272 OA
ATOM     16  H   UNL     1     -28.951 -14.465  18.012  0.00  0.00    +0.145 HD
ATOM     17  H   UNL     1     -30.323 -15.145  18.956  0.00  0.00    +0.145 HD
ENDBRANCH  12  13
ENDBRANCH  11  12
ENDBRANCH  10  11
ENDBRANCH   2   5
BRANCH   1  18
ATOM     18  C   UNL     1     -33.127 -11.001  18.439  0.00  0.00    +0.101 C 
ATOM     19  C   UNL     1     -32.676 -12.157  19.341  0.00  0.00    +0.033 C 
BRANCH  18  25
ATOM     20  C   UNL     1     -33.401  -5.900  19.307  0.00  0.00    +0.044 C 
ATOM     21  C   UNL     1     -32.713  -7.241  19.381  0.00  0.00    -0.047 A 
ATOM     22  C   UNL     1     -31.464  -7.310  20.015  0.00  0.00    +0.003 A 
ATOM     23  C   UNL     1     -30.790  -8.520  20.119  0.00  0.00    +0.001 A 
ATOM     24  C   UNL     1     -31.354  -9.681  19.603  0.00  0.00    +0.006 A 
ATOM     25  C   UNL     1     -32.606  -9.663  18.961  0.00  0.00    -0.024 A 
ATOM     26  C   UNL     1     -33.282  -8.411  18.802  0.00  0.00    -0.043 A 
ATOM     27  C   UNL     1     -34.620  -8.299  18.103  0.00  0.00    +0.044 C 
ENDBRANCH  18  25
ENDBRANCH   1  18
TORSDOF 6
ENDMDL
MODEL 5
REMARK VINA RESULT:    -4.428      1.895      4.689
REMARK INTER + INTRA:          -7.978
REMARK INTER:                  -5.417
REMARK INTRA:                  -2.561
REMARK UNBOUND:                -1.997
REMARK  Name = 
REMARK  9 active torsions:
REMARK  status: ('A' for Active; 'I' for Inactive)
REMARK    1  A    between atoms: C_1  and  C_2
REMARK    2  A    between atoms: C_6  and  C_9
REMARK    3  A    between atoms: C_7  and  C_8
REMARK    4  A    between atoms: C_9  and  C_10
REMARK    5  A    between atoms: C_9  and  N_11
REMARK    6  A    between atoms: C_12  and  C_14
REMARK    7  A    between atoms: C_19  and  O_20
REMARK    8  A    between atoms: O_20  and  C_21
REMARK    9  A    between atoms: C_21  and  C_22
REMARK                            x       y       z     vdW  Elec       q    Type
REMARK                         _______ _______ _______ _____ _____    ______ ____
ROOT
ATOM      1  N   UNL     1     -29.974 -12.338  17.464  0.00  0.00    -0.305 N 
ATOM      2  C   UNL     1     -30.212 -13.648  16.922  0.00  0.00    +0.248 C 
ATOM      3  O   UNL     1     -30.243 -14.648  17.691  0.00  0.00    -0.270 OA
ATOM      4  H   UNL     1     -29.812 -11.547  16.801  0.00  0.00    +0.150 HD
ENDROOT
BRANCH   2   5
ATOM      5  C   UNL     1     -30.361 -13.855  15.461  0.00  0.00    +0.078 A 
ATOM      6  C   UNL     1     -29.594 -14.856  14.839  0.00  0.00    +0.017 A 
ATOM      7  C   UNL     1     -29.677 -15.062  13.461  0.00  0.00    +0.001 A 
ATOM      8  C   UNL     1     -30.532 -14.278  12.688  0.00  0.00    +0.004 A 
ATOM      9  C   UNL     1     -31.315 -13.293  13.291  0.00  0.00    +0.046 A 
ATOM     10  C   UNL     1     -31.250 -13.078  14.684  0.00  0.00    +0.133 A 
BRANCH  10  11
ATOM     11  O   UNL     1     -32.072 -12.134  15.324  0.00  0.00    -0.482 OA
BRANCH  11  12
ATOM     12  C   UNL     1     -32.241 -10.771  14.934  0.00  0.00    +0.324 C 
BRANCH  12  13
ATOM     13  C   UNL     1     -31.621  -9.859  15.948  0.00  0.00    +0.248 C 
ATOM     14  N   UNL     1     -32.434  -8.946  16.684  0.00  0.00    -0.327 N 
ATOM     15  O   UNL     1     -30.380  -9.898  16.154  0.00  0.00    -0.272 OA
ATOM     16  H   UNL     1     -33.463  -8.894  16.513  0.00  0.00    +0.145 HD
ATOM     17  H   UNL     1     -32.006  -8.314  17.397  0.00  0.00    +0.145 HD
ENDBRANCH  12  13
ENDBRANCH  11  12
ENDBRANCH  10  11
ENDBRANCH   2   5
BRANCH   1  18
ATOM     18  C   UNL     1     -29.699 -12.124  18.890  0.00  0.00    +0.101 C 
ATOM     19  C   UNL     1     -28.203 -11.913  19.155  0.00  0.00    +0.033 C 
BRANCH  18  25
ATOM     20  C   UNL     1     -33.973 -10.031  20.938  0.00  0.00    +0.044 C 
ATOM     21  C   UNL     1     -32.546  -9.968  20.452  0.00  0.00    -0.047 A 
ATOM     22  C   UNL     1     -31.862  -8.749  20.564  0.00  0.00    +0.003 A 
ATOM     23  C   UNL     1     -30.545  -8.637  20.140  0.00  0.00    +0.001 A 
ATOM     24  C   UNL     1     -29.884  -9.738  19.610  0.00  0.00    +0.006 A 
ATOM     25  C   UNL     1     -30.527 -10.984  19.482  0.00  0.00    -0.024 A 
ATOM     26  C   UNL     1     -31.902 -11.093  19.866  0.00  0.00    -0.043 A 
ATOM     27  C   UNL     1     -32.675 -12.389  19.738  0.00  0.00    +0.044 C 
ENDBRANCH  18  25
ENDBRANCH   1  18
TORSDOF 6
ENDMDL
MODEL 6
REMARK VINA RESULT:    -4.243      2.693      4.736
REMARK INTER + INTRA:          -7.729
REMARK INTER:                  -5.186
REMARK INTRA:                  -2.543
REMARK UNBOUND:                -1.997
REMARK  Name = 
REMARK  9 active torsions:
REMARK  status: ('A' for Active; 'I' for Inactive)
REMARK    1  A    between atoms: C_1  and  C_2
REMARK    2  A    between atoms: C_6  and  C_9
REMARK    3  A    between atoms: C_7  and  C_8
REMARK    4  A    between atoms: C_9  and  C_10
REMARK    5  A    between atoms: C_9  and  N_11
REMARK    6  A    between atoms: C_12  and  C_14
REMARK    7  A    between atoms: C_19  and  O_20
REMARK    8  A    between atoms: O_20  and  C_21
REMARK    9  A    between atoms: C_21  and  C_22
REMARK                            x       y       z     vdW  Elec       q    Type
REMARK                         _______ _______ _______ _____ _____    ______ ____
ROOT
ATOM      1  N   UNL     1     -31.409 -11.221  16.866  0.00  0.00    -0.305 N 
ATOM      2  C   UNL     1     -31.381 -12.345  15.970  0.00  0.00    +0.248 C 
ATOM      3  O   UNL     1     -30.595 -13.306  16.195  0.00  0.00    -0.270 OA
ATOM      4  H   UNL     1     -31.958 -10.377  16.588  0.00  0.00    +0.150 HD
ENDROOT
BRANCH   2   5
ATOM      5  C   UNL     1     -32.218 -12.368  14.746  0.00  0.00    +0.078 A 
ATOM      6  C   UNL     1     -31.633 -12.779  13.535  0.00  0.00    +0.017 A 
ATOM      7  C   UNL     1     -32.375 -12.784  12.353  0.00  0.00    +0.001 A 
ATOM      8  C   UNL     1     -33.710 -12.383  12.365  0.00  0.00    +0.004 A 
ATOM      9  C   UNL     1     -34.313 -11.990  13.561  0.00  0.00    +0.046 A 
ATOM     10  C   UNL     1     -33.580 -11.989  14.766  0.00  0.00    +0.133 A 
BRANCH  10  11
ATOM     11  O   UNL     1     -34.179 -11.655  15.993  0.00  0.00    -0.482 OA
BRANCH  11  12
ATOM     12  C   UNL     1     -35.056 -10.553  16.223  0.00  0.00    +0.324 C 
BRANCH  12  13
ATOM     13  C   UNL     1     -34.407  -9.552  17.128  0.00  0.00    +0.248 C 
ATOM     14  N   UNL     1     -35.062  -9.134  18.326  0.00  0.00    -0.327 N 
ATOM     15  O   UNL     1     -33.279  -9.075  16.834  0.00  0.00    -0.272 OA
ATOM     16  H   UNL     1     -36.004  -9.511  18.574  0.00  0.00    +0.145 HD
ATOM     17  H   UNL     1     -34.609  -8.442  18.962  0.00  0.00    +0.145 HD
ENDBRANCH  12  13
ENDBRANCH  11  12
ENDBRANCH  10  11
ENDBRANCH   2   5
BRANCH   1  18
ATOM     18  C   UNL     1     -30.500 -11.119  18.014  0.00  0.00    +0.101 C 
ATOM     19  C   UNL     1     -29.156 -10.492  17.622  0.00  0.00    +0.033 C 
BRANCH  18  25
ATOM     20  C   UNL     1     -33.740 -10.619  22.027  0.00  0.00    +0.044 C 
ATOM     21  C   UNL     1     -32.660 -10.116  21.101  0.00  0.00    -0.047 A 
ATOM     22  C   UNL     1     -32.131  -8.839  21.332  0.00  0.00    +0.003 A 
ATOM     23  C   UNL     1     -31.130  -8.329  20.516  0.00  0.00    +0.001 A 
ATOM     24  C   UNL     1     -30.632  -9.088  19.464  0.00  0.00    +0.006 A 
ATOM     25  C   UNL     1     -31.128 -10.377  19.194  0.00  0.00    -0.024 A 
ATOM     26  C   UNL     1     -32.197 -10.887  19.997  0.00  0.00    -0.043 A 
ATOM     27  C   UNL     1     -32.805 -12.254  19.759  0.00  0.00    +0.044 C 
ENDBRANCH  18  25
ENDBRANCH   1  18
TORSDOF 6
ENDMDL
MODEL 7
REMARK VINA RESULT:    -4.233      1.998      4.339
REMARK INTER + INTRA:          -7.714
REMARK INTER:                  -6.069
REMARK INTRA:                  -1.645
REMARK UNBOUND:                -1.997
REMARK  Name = 
REMARK  9 active torsions:
REMARK  status: ('A' for Active; 'I' for Inactive)
REMARK    1  A    between atoms: C_1  and  C_2
REMARK    2  A    between atoms: C_6  and  C_9
REMARK    3  A    between atoms: C_7  and  C_8
REMARK    4  A    between atoms: C_9  and  C_10
REMARK    5  A    between atoms: C_9  and  N_11
REMARK    6  A    between atoms: C_12  and  C_14
REMARK    7  A    between atoms: C_19  and  O_20
REMARK    8  A    between atoms: O_20  and  C_21
REMARK    9  A    between atoms: C_21  and  C_22
REMARK                            x       y       z     vdW  Elec       q    Type
REMARK                         _______ _______ _______ _____ _____    ______ ____
ROOT
ATOM      1  N   UNL     1     -28.779 -13.065  17.316  0.00  0.00    -0.305 N 
ATOM      2  C   UNL     1     -29.603 -14.074  16.707  0.00  0.00    +0.248 C 
ATOM      3  O   UNL     1     -30.316 -14.822  17.432  0.00  0.00    -0.270 OA
ATOM      4  H   UNL     1     -28.093 -12.554  16.716  0.00  0.00    +0.150 HD
ENDROOT
BRANCH   2   5
ATOM      5  C   UNL     1     -29.584 -14.294  15.241  0.00  0.00    +0.078 A 
ATOM      6  C   UNL     1     -28.397 -14.750  14.641  0.00  0.00    +0.017 A 
ATOM      7  C   UNL     1     -28.325 -14.938  13.260  0.00  0.00    +0.001 A 
ATOM      8  C   UNL     1     -29.438 -14.682  12.462  0.00  0.00    +0.004 A 
ATOM      9  C   UNL     1     -30.631 -14.248  13.042  0.00  0.00    +0.046 A 
ATOM     10  C   UNL     1     -30.724 -14.061  14.437  0.00  0.00    +0.133 A 
BRANCH  10  11
ATOM     11  O   UNL     1     -31.930 -13.683  15.052  0.00  0.00    -0.482 OA
BRANCH  11  12
ATOM     12  C   UNL     1     -32.276 -12.365  15.475  0.00  0.00    +0.324 C 
BRANCH  12  13
ATOM     13  C   UNL     1     -33.025 -12.414  16.771  0.00  0.00    +0.248 C 
ATOM     14  N   UNL     1     -32.761 -13.452  17.714  0.00  0.00    -0.327 N 
ATOM     15  O   UNL     1     -33.890 -11.537  17.032  0.00  0.00    -0.272 OA
ATOM     16  H   UNL     1     -32.056 -14.193  17.505  0.00  0.00    +0.145 HD
ATOM     17  H   UNL     1     -33.276 -13.485  18.621  0.00  0.00    +0.145 HD
ENDBRANCH  12  13
ENDBRANCH  11  12
ENDBRANCH  10  11
ENDBRANCH   2   5
BRANCH   1  18
ATOM     18  C   UNL     1     -28.685 -12.912  18.773  0.00  0.00    +0.101 C 
ATOM     19  C   UNL     1     -27.301 -12.409  19.204  0.00  0.00    +0.033 C 
BRANCH  18  25
ATOM     20  C   UNL     1     -31.789  -8.763  18.811  0.00  0.00    +0.044 C 
ATOM     21  C   UNL     1     -31.274 -10.062  19.382  0.00  0.00    -0.047 A 
ATOM     22  C   UNL     1     -31.872 -10.555  20.550  0.00  0.00    +0.003 A 
ATOM     23  C   UNL     1     -31.443 -11.749  21.114  0.00  0.00    +0.001 A 
ATOM     24  C   UNL     1     -30.421 -12.477  20.517  0.00  0.00    +0.006 A 
ATOM     25  C   UNL     1     -29.793 -12.025  19.341  0.00  0.00    -0.024 A 
ATOM     26  C   UNL     1     -30.192 -10.768  18.785  0.00  0.00    -0.043 A 
ATOM     27  C   UNL     1     -29.552 -10.198  17.536  0.00  0.00    +0.044 C 
ENDBRANCH  18  25
ENDBRANCH   1  18
TORSDOF 6
ENDMDL
MODEL 8
REMARK VINA RESULT:    -4.231      2.708      5.652
REMARK INTER + INTRA:          -7.712
REMARK INTER:                  -6.507
REMARK INTRA:                  -1.205
REMARK UNBOUND:                -1.997
REMARK  Name = 
REMARK  9 active torsions:
REMARK  status: ('A' for Active; 'I' for Inactive)
REMARK    1  A    between atoms: C_1  and  C_2
REMARK    2  A    between atoms: C_6  and  C_9
REMARK    3  A    between atoms: C_7  and  C_8
REMARK    4  A    between atoms: C_9  and  C_10
REMARK    5  A    between atoms: C_9  and  N_11
REMARK    6  A    between atoms: C_12  and  C_14
REMARK    7  A    between atoms: C_19  and  O_20
REMARK    8  A    between atoms: O_20  and  C_21
REMARK    9  A    between atoms: C_21  and  C_22
REMARK                            x       y       z     vdW  Elec       q    Type
REMARK                         _______ _______ _______ _____ _____    ______ ____
ROOT
ATOM      1  N   UNL     1     -32.030 -11.533  17.210  0.00  0.00    -0.305 N 
ATOM      2  C   UNL     1     -33.204 -11.233  17.984  0.00  0.00    +0.248 C 
ATOM      3  O   UNL     1     -34.342 -11.277  17.439  0.00  0.00    -0.270 OA
ATOM      4  H   UNL     1     -31.094 -11.353  17.637  0.00  0.00    +0.150 HD
ENDROOT
BRANCH   2   5
ATOM      5  C   UNL     1     -33.098 -10.809  19.401  0.00  0.00    +0.078 A 
ATOM      6  C   UNL     1     -34.007  -9.855  19.891  0.00  0.00    +0.017 A 
ATOM      7  C   UNL     1     -33.922  -9.403  21.209  0.00  0.00    +0.001 A 
ATOM      8  C   UNL     1     -32.934  -9.902  22.055  0.00  0.00    +0.004 A 
ATOM      9  C   UNL     1     -32.035 -10.864  21.592  0.00  0.00    +0.046 A 
ATOM     10  C   UNL     1     -32.113 -11.338  20.266  0.00  0.00    +0.133 A 
BRANCH  10  11
ATOM     11  O   UNL     1     -31.259 -12.349  19.793  0.00  0.00    -0.482 OA
BRANCH  11  12
ATOM     12  C   UNL     1     -30.368 -13.132  20.588  0.00  0.00    +0.324 C 
BRANCH  12  13
ATOM     13  C   UNL     1     -28.975 -13.046  20.046  0.00  0.00    +0.248 C 
ATOM     14  N   UNL     1     -28.220 -14.235  19.813  0.00  0.00    -0.327 N 
ATOM     15  O   UNL     1     -28.465 -11.922  19.796  0.00  0.00    -0.272 OA
ATOM     16  H   UNL     1     -28.626 -15.172  20.029  0.00  0.00    +0.145 HD
ATOM     17  H   UNL     1     -27.252 -14.179  19.428  0.00  0.00    +0.145 HD
ENDBRANCH  12  13
ENDBRANCH  11  12
ENDBRANCH  10  11
ENDBRANCH   2   5
BRANCH   1  18
ATOM     18  C   UNL     1     -32.100 -11.831  15.774  0.00  0.00    +0.101 C 
ATOM     19  C   UNL     1     -31.972 -10.562  14.923  0.00  0.00    +0.033 C 
BRANCH  18  25
ATOM     20  C   UNL     1     -29.861 -15.062  12.399  0.00  0.00    +0.044 C 
ATOM     21  C   UNL     1     -30.003 -14.429  13.761  0.00  0.00    -0.047 A 
ATOM     22  C   UNL     1     -29.100 -14.806  14.765  0.00  0.00    +0.003 A 
ATOM     23  C   UNL     1     -29.180 -14.248  16.034  0.00  0.00    +0.001 A 
ATOM     24  C   UNL     1     -30.153 -13.298  16.321  0.00  0.00    +0.006 A 
ATOM     25  C   UNL     1     -31.080 -12.885  15.345  0.00  0.00    -0.024 A 
ATOM     26  C   UNL     1     -31.038 -13.495  14.051  0.00  0.00    -0.043 A 
ATOM     27  C   UNL     1     -32.013 -13.126  12.953  0.00  0.00    +0.044 C 
ENDBRANCH  18  25
ENDBRANCH   1  18
TORSDOF 6
ENDMDL
MODEL 9
REMARK VINA RESULT:    -4.229      2.067      6.438
REMARK INTER + INTRA:          -7.709
REMARK INTER:                  -6.880
REMARK INTRA:                  -0.829
REMARK UNBOUND:                -1.997
REMARK  Name = 
REMARK  9 active torsions:
REMARK  status: ('A' for Active; 'I' for Inactive)
REMARK    1  A    between atoms: C_1  and  C_2
REMARK    2  A    between atoms: C_6  and  C_9
REMARK    3  A    between atoms: C_7  and  C_8
REMARK    4  A    between atoms: C_9  and  C_10
REMARK    5  A    between atoms: C_9  and  N_11
REMARK    6  A    between atoms: C_12  and  C_14
REMARK    7  A    between atoms: C_19  and  O_20
REMARK    8  A    between atoms: O_20  and  C_21
REMARK    9  A    between atoms: C_21  and  C_22
REMARK                            x       y       z     vdW  Elec       q    Type
REMARK                         _______ _______ _______ _____ _____    ______ ____
ROOT
ATOM      1  N   UNL     1     -31.356 -11.926  16.866  0.00  0.00    -0.305 N 
ATOM      2  C   UNL     1     -30.386 -11.010  17.404  0.00  0.00    +0.248 C 
ATOM      3  O   UNL     1     -29.176 -11.105  17.059  0.00  0.00    -0.270 OA
ATOM      4  H   UNL     1     -32.320 -11.922  17.270  0.00  0.00    +0.150 HD
ENDROOT
BRANCH   2   5
ATOM      5  C   UNL     1     -30.772  -9.990  18.409  0.00  0.00    +0.078 A 
ATOM      6  C   UNL     1     -31.813  -9.097  18.101  0.00  0.00    +0.017 A 
ATOM      7  C   UNL     1     -32.186  -8.101  19.004  0.00  0.00    +0.001 A 
ATOM      8  C   UNL     1     -31.529  -7.987  20.228  0.00  0.00    +0.004 A 
ATOM      9  C   UNL     1     -30.507  -8.877  20.560  0.00  0.00    +0.046 A 
ATOM     10  C   UNL     1     -30.124  -9.896  19.662  0.00  0.00    +0.133 A 
BRANCH  10  11
ATOM     11  O   UNL     1     -29.140 -10.842  19.996  0.00  0.00    -0.482 OA
BRANCH  11  12
ATOM     12  C   UNL     1     -29.259 -11.858  20.992  0.00  0.00    +0.324 C 
BRANCH  12  13
ATOM     13  C   UNL     1     -29.751 -13.132  20.380  0.00  0.00    +0.248 C 
ATOM     14  N   UNL     1     -28.826 -14.060  19.813  0.00  0.00    -0.327 N 
ATOM     15  O   UNL     1     -30.983 -13.389  20.363  0.00  0.00    -0.272 OA
ATOM     16  H   UNL     1     -27.803 -13.853  19.807  0.00  0.00    +0.145 HD
ATOM     17  H   UNL     1     -29.165 -14.953  19.391  0.00  0.00    +0.145 HD
ENDBRANCH  12  13
ENDBRANCH  11  12
ENDBRANCH  10  11
ENDBRANCH   2   5
BRANCH   1  18
ATOM     18  C   UNL     1     -30.976 -13.022  15.968  0.00  0.00    +0.101 C 
ATOM     19  C   UNL     1     -31.221 -14.394  16.609  0.00  0.00    +0.033 C 
BRANCH  18  25
ATOM     20  C   UNL     1     -34.656 -11.422  12.690  0.00  0.00    +0.044 C 
ATOM     21  C   UNL     1     -33.397 -12.180  13.031  0.00  0.00    -0.047 A 
ATOM     22  C   UNL     1     -32.736 -12.863  12.000  0.00  0.00    +0.003 A 
ATOM     23  C   UNL     1     -31.569 -13.570  12.255  0.00  0.00    +0.001 A 
ATOM     24  C   UNL     1     -31.034 -13.598  13.537  0.00  0.00    +0.006 A 
ATOM     25  C   UNL     1     -31.658 -12.924  14.604  0.00  0.00    -0.024 A 
ATOM     26  C   UNL     1     -32.891 -12.239  14.360  0.00  0.00    -0.043 A 
ATOM     27  C   UNL     1     -33.640 -11.510  15.456  0.00  0.00    +0.044 C 
ENDBRANCH  18  25
ENDBRANCH   1  18
TORSDOF 6
ENDMDL
