MODEL 1
REMARK VINA RESULT:    -3.721      0.000      0.000
REMARK INTER + INTRA:          -5.102
REMARK INTER:                  -4.592
REMARK INTRA:                  -0.510
REMARK UNBOUND:                -0.510
REMARK  Name = 
REMARK  6 active torsions:
REMARK  status: ('A' for Active; 'I' for Inactive)
REMARK    1  A    between atoms: C_1  and  C_2
REMARK    2  A    between atoms: C_2  and  C_3
REMARK    3  A    between atoms: C_3  and  C_4
REMARK    4  A    between atoms: C_3  and  N_6
REMARK    5  A    between atoms: C_4  and  C_5
REMARK    6  A    between atoms: C_10  and  N_14
REMARK                            x       y       z     vdW  Elec       q    Type
REMARK                         _______ _______ _______ _____ _____    ______ ____
ROOT
ATOM      1  N   UNL     1     -30.320 -11.061  19.164  0.00  0.00    -0.311 N 
ATOM      2  C   UNL     1     -29.153 -11.815  19.517  0.00  0.00    +0.217 A 
ATOM      3  N   UNL     1     -27.958 -11.564  18.922  0.00  0.00    -0.221 NA
ATOM      4  C   UNL     1     -26.848 -12.272  19.249  0.00  0.00    +0.150 A 
ATOM      5  C   UNL     1     -26.911 -13.276  20.224  0.00  0.00    +0.184 A 
ATOM      6  C   UNL     1     -28.166 -13.543  20.813  0.00  0.00    +0.152 A 
ATOM      7  N   UNL     1     -28.354 -14.613  21.744  0.00  0.00    -0.341 N 
ATOM      8  N   UNL     1     -29.246 -12.800  20.448  0.00  0.00    -0.198 NA
ATOM      9  H   UNL     1     -31.212 -11.276  19.665  0.00  0.00    +0.149 HD
ATOM     10  H   UNL     1     -29.277 -14.731  22.217  0.00  0.00    +0.144 HD
ATOM     11  H   UNL     1     -27.640 -15.360  21.883  0.00  0.00    +0.144 HD
ENDROOT
BRANCH   5  12
ATOM     12  N   UNL     1     -25.714 -13.972  20.608  0.00  0.00    +0.061 N 
ATOM     13  O   UNL     1     -25.335 -14.006  21.930  0.00  0.00    -0.126 OA
ATOM     14  O   UNL     1     -25.133 -14.723  19.796  0.00  0.00    -0.126 OA
ENDBRANCH   5  12
BRANCH   1  15
ATOM     15  C   UNL     1     -30.289  -9.987  18.163  0.00  0.00    +0.073 C 
BRANCH  15  17
ATOM     16  C   UNL     1     -31.768 -10.079  16.076  0.00  0.00    +0.006 C 
ATOM     17  C   UNL     1     -30.492 -10.589  16.745  0.00  0.00    +0.019 C 
ENDBRANCH  15  17
BRANCH  15  18
ATOM     18  C   UNL     1     -31.365  -8.932  18.510  0.00  0.00    +0.019 C 
ATOM     19  C   UNL     1     -31.195  -8.337  19.907  0.00  0.00    +0.006 C 
ENDBRANCH  15  18
ENDBRANCH   1  15
TORSDOF 4
ENDMDL
MODEL 2
REMARK VINA RESULT:    -3.710      3.865      4.993
REMARK INTER + INTRA:          -5.087
REMARK INTER:                  -4.438
REMARK INTRA:                  -0.649
REMARK UNBOUND:                -0.510
REMARK  Name = 
REMARK  6 active torsions:
REMARK  status: ('A' for Active; 'I' for Inactive)
REMARK    1  A    between atoms: C_1  and  C_2
REMARK    2  A    between atoms: C_2  and  C_3
REMARK    3  A    between atoms: C_3  and  C_4
REMARK    4  A    between atoms: C_3  and  N_6
REMARK    5  A    between atoms: C_4  and  C_5
REMARK    6  A    between atoms: C_10  and  N_14
REMARK                            x       y       z     vdW  Elec       q    Type
REMARK                         _______ _______ _______ _____ _____    ______ ____
ROOT
ATOM      1  N   UNL     1     -29.058 -14.279  16.644  0.00  0.00    -0.311 N 
ATOM      2  C   UNL     1     -29.198 -13.175  17.548  0.00  0.00    +0.217 A 
ATOM      3  N   UNL     1     -29.544 -11.944  17.091  0.00  0.00    -0.221 NA
ATOM      4  C   UNL     1     -29.680 -10.893  17.938  0.00  0.00    +0.150 A 
ATOM      5  C   UNL     1     -29.476 -11.062  19.314  0.00  0.00    +0.184 A 
ATOM      6  C   UNL     1     -29.091 -12.342  19.769  0.00  0.00    +0.152 A 
ATOM      7  N   UNL     1     -28.763 -12.592  21.139  0.00  0.00    -0.341 N 
ATOM      8  N   UNL     1     -28.971 -13.360  18.874  0.00  0.00    -0.198 NA
ATOM      9  H   UNL     1     -28.811 -15.212  17.046  0.00  0.00    +0.149 HD
ATOM     10  H   UNL     1     -28.557 -13.566  21.452  0.00  0.00    +0.144 HD
ATOM     11  H   UNL     1     -28.601 -11.820  21.821  0.00  0.00    +0.144 HD
ENDROOT
BRANCH   5  12
ATOM     12  N   UNL     1     -29.689  -9.957  20.207  0.00  0.00    +0.061 N 
ATOM     13  O   UNL     1     -29.968  -8.709  19.699  0.00  0.00    -0.126 OA
ATOM     14  O   UNL     1     -29.835 -10.154  21.431  0.00  0.00    -0.126 OA
ENDBRANCH   5  12
BRANCH   1  15
ATOM     15  C   UNL     1     -29.284 -14.146  15.199  0.00  0.00    +0.073 C 
BRANCH  15  17
ATOM     16  C   UNL     1     -28.119 -14.634  12.972  0.00  0.00    +0.006 C 
ATOM     17  C   UNL     1     -28.292 -15.062  14.430  0.00  0.00    +0.019 C 
ENDBRANCH  15  17
BRANCH  15  18
ATOM     18  C   UNL     1     -30.759 -14.481  14.878  0.00  0.00    +0.019 C 
ATOM     19  C   UNL     1     -31.527 -13.301  14.283  0.00  0.00    +0.006 C 
ENDBRANCH  15  18
ENDBRANCH   1  15
TORSDOF 4
ENDMDL
MODEL 3
REMARK VINA RESULT:    -3.705      1.243      1.622
REMARK INTER + INTRA:          -5.082
REMARK INTER:                  -4.504
REMARK INTRA:                  -0.577
REMARK UNBOUND:                -0.510
REMARK  Name = 
REMARK  6 active torsions:
REMARK  status: ('A' for Active; 'I' for Inactive)
REMARK    1  A    between atoms: C_1  and  C_2
REMARK    2  A    between atoms: C_2  and  C_3
REMARK    3  A    between atoms: C_3  and  C_4
REMARK    4  A    between atoms: C_3  and  N_6
REMARK    5  A    between atoms: C_4  and  C_5
REMARK    6  A    between atoms: C_10  and  N_14
REMARK                            x       y       z     vdW  Elec       q    Type
REMARK                         _______ _______ _______ _____ _____    ______ ____
ROOT
ATOM      1  N   UNL     1     -30.715 -11.739  17.888  0.00  0.00    -0.311 N 
ATOM      2  C   UNL     1     -29.512 -12.149  18.552  0.00  0.00    +0.217 A 
ATOM      3  N   UNL     1     -28.301 -11.696  18.135  0.00  0.00    -0.221 NA
ATOM      4  C   UNL     1     -27.157 -12.077  18.756  0.00  0.00    +0.150 A 
ATOM      5  C   UNL     1     -27.204 -12.943  19.857  0.00  0.00    +0.184 A 
ATOM      6  C   UNL     1     -28.469 -13.426  20.259  0.00  0.00    +0.152 A 
ATOM      7  N   UNL     1     -28.612 -14.390  21.307  0.00  0.00    -0.341 N 
ATOM      8  N   UNL     1     -29.583 -13.009  19.601  0.00  0.00    -0.198 NA
ATOM      9  H   UNL     1     -31.624 -12.098  18.258  0.00  0.00    +0.149 HD
ATOM     10  H   UNL     1     -29.566 -14.666  21.629  0.00  0.00    +0.144 HD
ATOM     11  H   UNL     1     -27.801 -14.925  21.685  0.00  0.00    +0.144 HD
ENDROOT
BRANCH   5  12
ATOM     12  N   UNL     1     -25.991 -13.285  20.547  0.00  0.00    +0.061 N 
ATOM     13  O   UNL     1     -26.033 -13.625  21.879  0.00  0.00    -0.126 OA
ATOM     14  O   UNL     1     -24.938 -13.486  19.907  0.00  0.00    -0.126 OA
ENDBRANCH   5  12
BRANCH   1  15
ATOM     15  C   UNL     1     -30.708 -10.817  16.745  0.00  0.00    +0.073 C 
BRANCH  15  17
ATOM     16  C   UNL     1     -30.779 -12.868  15.214  0.00  0.00    +0.006 C 
ATOM     17  C   UNL     1     -31.382 -11.497  15.521  0.00  0.00    +0.019 C 
ENDBRANCH  15  17
BRANCH  15  18
ATOM     18  C   UNL     1     -31.413  -9.500  17.145  0.00  0.00    +0.019 C 
ATOM     19  C   UNL     1     -32.786  -9.333  16.495  0.00  0.00    +0.006 C 
ENDBRANCH  15  18
ENDBRANCH   1  15
TORSDOF 4
ENDMDL
MODEL 4
REMARK VINA RESULT:    -3.700      1.899      1.925
REMARK INTER + INTRA:          -5.075
REMARK INTER:                  -4.466
REMARK INTRA:                  -0.609
REMARK UNBOUND:                -0.510
REMARK  Name = 
REMARK  6 active torsions:
REMARK  status: ('A' for Active; 'I' for Inactive)
REMARK    1  A    between atoms: C_1  and  C_2
REMARK    2  A    between atoms: C_2  and  C_3
REMARK    3  A    between atoms: C_3  and  C_4
REMARK    4  A    between atoms: C_3  and  N_6
REMARK    5  A    between atoms: C_4  and  C_5
REMARK    6  A    between atoms: C_10  and  N_14
REMARK                            x       y       z     vdW  Elec       q    Type
REMARK                         _______ _______ _______ _____ _____    ______ ____
ROOT
ATOM      1  N   UNL     1     -31.279 -12.988  19.851  0.00  0.00    -0.311 N 
ATOM      2  C   UNL     1     -29.854 -13.059  19.995  0.00  0.00    +0.217 A 
ATOM      3  N   UNL     1     -29.039 -12.316  19.201  0.00  0.00    -0.221 NA
ATOM      4  C   UNL     1     -27.690 -12.375  19.329  0.00  0.00    +0.150 A 
ATOM      5  C   UNL     1     -27.107 -13.201  20.300  0.00  0.00    +0.184 A 
ATOM      6  C   UNL     1     -27.968 -13.986  21.098  0.00  0.00    +0.152 A 
ATOM      7  N   UNL     1     -27.467 -14.933  22.046  0.00  0.00    -0.341 N 
ATOM      8  N   UNL     1     -29.313 -13.885  20.927  0.00  0.00    -0.198 NA
ATOM      9  H   UNL     1     -31.865 -13.562  20.499  0.00  0.00    +0.149 HD
ATOM     10  H   UNL     1     -28.131 -15.439  22.673  0.00  0.00    +0.144 HD
ATOM     11  H   UNL     1     -26.468 -15.232  22.059  0.00  0.00    +0.144 HD
ENDROOT
BRANCH   5  12
ATOM     12  N   UNL     1     -25.681 -13.203  20.469  0.00  0.00    +0.061 N 
ATOM     13  O   UNL     1     -25.114 -13.915  21.501  0.00  0.00    -0.126 OA
ATOM     14  O   UNL     1     -24.938 -12.748  19.574  0.00  0.00    -0.126 OA
ENDBRANCH   5  12
BRANCH   1  15
ATOM     15  C   UNL     1     -31.928 -12.119  18.860  0.00  0.00    +0.073 C 
BRANCH  15  17
ATOM     16  C   UNL     1     -31.593 -12.582  16.365  0.00  0.00    +0.006 C 
ATOM     17  C   UNL     1     -32.361 -12.963  17.630  0.00  0.00    +0.019 C 
ENDBRANCH  15  17
BRANCH  15  18
ATOM     18  C   UNL     1     -33.122 -11.392  19.521  0.00  0.00    +0.019 C 
ATOM     19  C   UNL     1     -32.710 -10.508  20.697  0.00  0.00    +0.006 C 
ENDBRANCH  15  18
ENDBRANCH   1  15
TORSDOF 4
ENDMDL
MODEL 5
REMARK VINA RESULT:    -3.682      3.393      4.611
REMARK INTER + INTRA:          -5.053
REMARK INTER:                  -4.462
REMARK INTRA:                  -0.591
REMARK UNBOUND:                -0.510
REMARK  Name = 
REMARK  6 active torsions:
REMARK  status: ('A' for Active; 'I' for Inactive)
REMARK    1  A    between atoms: C_1  and  C_2
REMARK    2  A    between atoms: C_2  and  C_3
REMARK    3  A    between atoms: C_3  and  C_4
REMARK    4  A    between atoms: C_3  and  N_6
REMARK    5  A    between atoms: C_4  and  C_5
REMARK    6  A    between atoms: C_10  and  N_14
REMARK                            x       y       z     vdW  Elec       q    Type
REMARK                         _______ _______ _______ _____ _____    ______ ____
ROOT
ATOM      1  N   UNL     1     -31.747 -12.962  14.884  0.00  0.00    -0.311 N 
ATOM      2  C   UNL     1     -30.946 -12.519  15.987  0.00  0.00    +0.217 A 
ATOM      3  N   UNL     1     -30.659 -11.201  16.150  0.00  0.00    -0.221 NA
ATOM      4  C   UNL     1     -29.902 -10.771  17.190  0.00  0.00    +0.150 A 
ATOM      5  C   UNL     1     -29.408 -11.684  18.131  0.00  0.00    +0.184 A 
ATOM      6  C   UNL     1     -29.694 -13.053  17.932  0.00  0.00    +0.152 A 
ATOM      7  N   UNL     1     -29.153 -14.070  18.780  0.00  0.00    -0.341 N 
ATOM      8  N   UNL     1     -30.459 -13.427  16.872  0.00  0.00    -0.198 NA
ATOM      9  H   UNL     1     -31.959 -13.983  14.812  0.00  0.00    +0.149 HD
ATOM     10  H   UNL     1     -29.448 -15.063  18.649  0.00  0.00    +0.144 HD
ATOM     11  H   UNL     1     -28.379 -13.880  19.452  0.00  0.00    +0.144 HD
ENDROOT
BRANCH   5  12
ATOM     12  N   UNL     1     -28.665 -11.207  19.265  0.00  0.00    +0.061 N 
ATOM     13  O   UNL     1     -29.308 -10.512  20.263  0.00  0.00    -0.126 OA
ATOM     14  O   UNL     1     -27.495 -11.597  19.461  0.00  0.00    -0.126 OA
ENDBRANCH   5  12
BRANCH   1  15
ATOM     15  C   UNL     1     -32.300 -12.034  13.889  0.00  0.00    +0.073 C 
BRANCH  15  17
ATOM     16  C   UNL     1     -33.319 -13.340  11.938  0.00  0.00    +0.006 C 
ATOM     17  C   UNL     1     -32.084 -12.609  12.462  0.00  0.00    +0.019 C 
ENDBRANCH  15  17
BRANCH  15  18
ATOM     18  C   UNL     1     -33.794 -11.781  14.198  0.00  0.00    +0.019 C 
ATOM     19  C   UNL     1     -34.112 -10.310  14.462  0.00  0.00    +0.006 C 
ENDBRANCH  15  18
ENDBRANCH   1  15
TORSDOF 4
ENDMDL
MODEL 6
REMARK VINA RESULT:    -3.628      3.924      5.151
REMARK INTER + INTRA:          -4.987
REMARK INTER:                  -4.339
REMARK INTRA:                  -0.648
REMARK UNBOUND:                -0.510
REMARK  Name = 
REMARK  6 active torsions:
REMARK  status: ('A' for Active; 'I' for Inactive)
REMARK    1  A    between atoms: C_1  and  C_2
REMARK    2  A    between atoms: C_2  and  C_3
REMARK    3  A    between atoms: C_3  and  C_4
REMARK    4  A    between atoms: C_3  and  N_6
REMARK    5  A    between atoms: C_4  and  C_5
REMARK    6  A    between atoms: C_10  and  N_14
REMARK                            x       y       z     vdW  Elec       q    Type
REMARK                         _______ _______ _______ _____ _____    ______ ____
ROOT
ATOM      1  N   UNL     1     -31.056 -14.086  15.330  0.00  0.00    -0.311 N 
ATOM      2  C   UNL     1     -30.689 -13.371  16.517  0.00  0.00    +0.217 A 
ATOM      3  N   UNL     1     -30.104 -12.147  16.436  0.00  0.00    -0.221 NA
ATOM      4  C   UNL     1     -29.753 -11.462  17.553  0.00  0.00    +0.150 A 
ATOM      5  C   UNL     1     -30.000 -12.003  18.822  0.00  0.00    +0.184 A 
ATOM      6  C   UNL     1     -30.583 -13.288  18.887  0.00  0.00    +0.152 A 
ATOM      7  N   UNL     1     -30.784 -13.966  20.131  0.00  0.00    -0.341 N 
ATOM      8  N   UNL     1     -30.917 -13.928  17.734  0.00  0.00    -0.198 NA
ATOM      9  H   UNL     1     -31.523 -15.015  15.443  0.00  0.00    +0.149 HD
ATOM     10  H   UNL     1     -31.288 -14.880  20.146  0.00  0.00    +0.144 HD
ATOM     11  H   UNL     1     -30.339 -13.644  21.017  0.00  0.00    +0.144 HD
ENDROOT
BRANCH   5  12
ATOM     12  N   UNL     1     -29.684 -11.238  19.997  0.00  0.00    +0.061 N 
ATOM     13  O   UNL     1     -29.184 -11.869  21.112  0.00  0.00    -0.126 OA
ATOM     14  O   UNL     1     -29.655  -9.991  19.947  0.00  0.00    -0.126 OA
ENDBRANCH   5  12
BRANCH   1  15
ATOM     15  C   UNL     1     -30.833 -13.543  13.983  0.00  0.00    +0.073 C 
BRANCH  15  17
ATOM     16  C   UNL     1     -28.647 -14.678  13.285  0.00  0.00    +0.006 C 
ATOM     17  C   UNL     1     -30.163 -14.623  13.090  0.00  0.00    +0.019 C 
ENDBRANCH  15  17
BRANCH  15  18
ATOM     18  C   UNL     1     -32.178 -13.053  13.399  0.00  0.00    +0.019 C 
ATOM     19  C   UNL     1     -32.380 -13.453  11.938  0.00  0.00    +0.006 C 
ENDBRANCH  15  18
ENDBRANCH   1  15
TORSDOF 4
ENDMDL
MODEL 7
REMARK VINA RESULT:    -3.476      4.668      6.777
REMARK INTER + INTRA:          -4.799
REMARK INTER:                  -4.511
REMARK INTRA:                  -0.288
REMARK UNBOUND:                -0.510
REMARK  Name = 
REMARK  6 active torsions:
REMARK  status: ('A' for Active; 'I' for Inactive)
REMARK    1  A    between atoms: C_1  and  C_2
REMARK    2  A    between atoms: C_2  and  C_3
REMARK    3  A    between atoms: C_3  and  C_4
REMARK    4  A    between atoms: C_3  and  N_6
REMARK    5  A    between atoms: C_4  and  C_5
REMARK    6  A    between atoms: C_10  and  N_14
REMARK                            x       y       z     vdW  Elec       q    Type
REMARK                         _______ _______ _______ _____ _____    ______ ____
ROOT
ATOM      1  N   UNL     1     -32.137 -11.793  14.102  0.00  0.00    -0.311 N 
ATOM      2  C   UNL     1     -31.853 -11.040  15.287  0.00  0.00    +0.217 A 
ATOM      3  N   UNL     1     -30.762 -11.326  16.046  0.00  0.00    -0.221 NA
ATOM      4  C   UNL     1     -30.484 -10.619  17.169  0.00  0.00    +0.150 A 
ATOM      5  C   UNL     1     -31.316  -9.564  17.566  0.00  0.00    +0.184 A 
ATOM      6  C   UNL     1     -32.460  -9.298  16.782  0.00  0.00    +0.152 A 
ATOM      7  N   UNL     1     -33.423  -8.309  17.158  0.00  0.00    -0.341 N 
ATOM      8  N   UNL     1     -32.689 -10.038  15.664  0.00  0.00    -0.198 NA
ATOM      9  H   UNL     1     -32.976 -11.523  13.540  0.00  0.00    +0.149 HD
ATOM     10  H   UNL     1     -34.214  -8.087  16.515  0.00  0.00    +0.144 HD
ATOM     11  H   UNL     1     -33.438  -7.881  18.109  0.00  0.00    +0.144 HD
ENDROOT
BRANCH   5  12
ATOM     12  N   UNL     1     -30.973  -8.781  18.721  0.00  0.00    +0.061 N 
ATOM     13  O   UNL     1     -29.801  -9.034  19.397  0.00  0.00    -0.126 OA
ATOM     14  O   UNL     1     -31.610  -7.742  18.991  0.00  0.00    -0.126 OA
ENDBRANCH   5  12
BRANCH   1  15
ATOM     15  C   UNL     1     -31.278 -12.892  13.642  0.00  0.00    +0.073 C 
BRANCH  15  17
ATOM     16  C   UNL     1     -29.872 -14.689  14.803  0.00  0.00    +0.006 C 
ATOM     17  C   UNL     1     -31.240 -14.011  14.718  0.00  0.00    +0.019 C 
ENDBRANCH  15  17
BRANCH  15  18
ATOM     18  C   UNL     1     -31.793 -13.409  12.278  0.00  0.00    +0.019 C 
ATOM     19  C   UNL     1     -33.266 -13.088  12.031  0.00  0.00    +0.006 C 
ENDBRANCH  15  18
ENDBRANCH   1  15
TORSDOF 4
ENDMDL
MODEL 8
REMARK VINA RESULT:    -3.381      5.507      7.036
REMARK INTER + INTRA:          -4.681
REMARK INTER:                  -4.041
REMARK INTRA:                  -0.640
REMARK UNBOUND:                -0.510
REMARK  Name = 
REMARK  6 active torsions:
REMARK  status: ('A' for Active; 'I' for Inactive)
REMARK    1  A    between atoms: C_1  and  C_2
REMARK    2  A    between atoms: C_2  and  C_3
REMARK    3  A    between atoms: C_3  and  C_4
REMARK    4  A    between atoms: C_3  and  N_6
REMARK    5  A    between atoms: C_4  and  C_5
REMARK    6  A    between atoms: C_10  and  N_14
REMARK                            x       y       z     vdW  Elec       q    Type
REMARK                         _______ _______ _______ _____ _____    ______ ____
ROOT
ATOM      1  N   UNL     1     -31.688 -11.873  13.931  0.00  0.00    -0.311 N 
ATOM      2  C   UNL     1     -32.106 -11.561  15.266  0.00  0.00    +0.217 A 
ATOM      3  N   UNL     1     -32.642 -12.518  16.067  0.00  0.00    -0.221 NA
ATOM      4  C   UNL     1     -33.040 -12.233  17.332  0.00  0.00    +0.150 A 
ATOM      5  C   UNL     1     -32.894 -10.937  17.845  0.00  0.00    +0.184 A 
ATOM      6  C   UNL     1     -32.361  -9.948  16.989  0.00  0.00    +0.152 A 
ATOM      7  N   UNL     1     -32.265  -8.576  17.385  0.00  0.00    -0.341 N 
ATOM      8  N   UNL     1     -31.977 -10.291  15.731  0.00  0.00    -0.198 NA
ATOM      9  H   UNL     1     -31.262 -11.108  13.360  0.00  0.00    +0.149 HD
ATOM     10  H   UNL     1     -31.795  -7.888  16.757  0.00  0.00    +0.144 HD
ATOM     11  H   UNL     1     -32.754  -8.206  18.228  0.00  0.00    +0.144 HD
ENDROOT
BRANCH   5  12
ATOM     12  N   UNL     1     -33.258 -10.665  19.208  0.00  0.00    +0.061 N 
ATOM     13  O   UNL     1     -33.959  -9.521  19.515  0.00  0.00    -0.126 OA
ATOM     14  O   UNL     1     -33.136 -11.548  20.081  0.00  0.00    -0.126 OA
ENDBRANCH   5  12
BRANCH   1  15
ATOM     15  C   UNL     1     -31.805 -13.224  13.365  0.00  0.00    +0.073 C 
BRANCH  15  17
ATOM     16  C   UNL     1     -33.836 -12.573  11.949  0.00  0.00    +0.006 C 
ATOM     17  C   UNL     1     -32.417 -13.141  11.940  0.00  0.00    +0.019 C 
ENDBRANCH  15  17
BRANCH  15  18
ATOM     18  C   UNL     1     -30.416 -13.903  13.367  0.00  0.00    +0.019 C 
ATOM     19  C   UNL     1     -30.168 -14.760  14.607  0.00  0.00    +0.006 C 
ENDBRANCH  15  18
ENDBRANCH   1  15
TORSDOF 4
ENDMDL
MODEL 9
REMARK VINA RESULT:    -3.357      2.224      2.946
REMARK INTER + INTRA:          -4.653
REMARK INTER:                  -4.009
REMARK INTRA:                  -0.644
REMARK UNBOUND:                -0.510
REMARK  Name = 
REMARK  6 active torsions:
REMARK  status: ('A' for Active; 'I' for Inactive)
REMARK    1  A    between atoms: C_1  and  C_2
REMARK    2  A    between atoms: C_2  and  C_3
REMARK    3  A    between atoms: C_3  and  C_4
REMARK    4  A    between atoms: C_3  and  N_6
REMARK    5  A    between atoms: C_4  and  C_5
REMARK    6  A    between atoms: C_10  and  N_14
REMARK                            x       y       z     vdW  Elec       q    Type
REMARK                         _______ _______ _______ _____ _____    ______ ____
ROOT
ATOM      1  N   UNL     1     -32.513 -10.816  17.483  0.00  0.00    -0.311 N 
ATOM      2  C   UNL     1     -31.155 -11.166  17.778  0.00  0.00    +0.217 A 
ATOM      3  N   UNL     1     -30.155 -10.260  17.621  0.00  0.00    -0.221 NA
ATOM      4  C   UNL     1     -28.867 -10.580  17.897  0.00  0.00    +0.150 A 
ATOM      5  C   UNL     1     -28.541 -11.860  18.366  0.00  0.00    +0.184 A 
ATOM      6  C   UNL     1     -29.588 -12.798  18.497  0.00  0.00    +0.152 A 
ATOM      7  N   UNL     1     -29.344 -14.157  18.872  0.00  0.00    -0.341 N 
ATOM      8  N   UNL     1     -30.862 -12.421  18.207  0.00  0.00    -0.198 NA
ATOM      9  H   UNL     1     -33.250 -11.541  17.639  0.00  0.00    +0.149 HD
ATOM     10  H   UNL     1     -30.150 -14.802  19.034  0.00  0.00    +0.144 HD
ATOM     11  H   UNL     1     -28.387 -14.570  18.874  0.00  0.00    +0.144 HD
ENDROOT
BRANCH   5  12
ATOM     12  N   UNL     1     -27.182 -12.165  18.718  0.00  0.00    +0.061 N 
ATOM     13  O   UNL     1     -26.195 -11.228  18.518  0.00  0.00    -0.126 OA
ATOM     14  O   UNL     1     -26.919 -13.179  19.397  0.00  0.00    -0.126 OA
ENDBRANCH   5  12
BRANCH   1  15
ATOM     15  C   UNL     1     -32.897  -9.480  17.010  0.00  0.00    +0.073 C 
BRANCH  15  17
ATOM     16  C   UNL     1     -34.356 -10.869  15.430  0.00  0.00    +0.006 C 
ATOM     17  C   UNL     1     -33.538  -9.589  15.599  0.00  0.00    +0.019 C 
ENDBRANCH  15  17
BRANCH  15  18
ATOM     18  C   UNL     1     -33.852  -8.827  18.037  0.00  0.00    +0.019 C 
ATOM     19  C   UNL     1     -33.123  -7.991  19.087  0.00  0.00    +0.006 C 
ENDBRANCH  15  18
ENDBRANCH   1  15
TORSDOF 4
ENDMDL
