MODEL 1
REMARK VINA RESULT:    -4.782      0.000      0.000
REMARK INTER + INTRA:          -7.266
REMARK INTER:                  -6.599
REMARK INTRA:                  -0.667
REMARK UNBOUND:                -0.667
REMARK  Name = 
REMARK  8 active torsions:
REMARK  status: ('A' for Active; 'I' for Inactive)
REMARK    1  A    between atoms: C_1  and  O_2
REMARK    2  A    between atoms: O_2  and  C_3
REMARK    3  A    between atoms: C_5  and  C_12
REMARK    4  A    between atoms: C_8  and  C_9
REMARK    5  A    between atoms: C_9  and  O_11
REMARK    6  A    between atoms: C_12  and  N_13
REMARK    7  A    between atoms: C_14  and  C_16
REMARK    8  A    between atoms: C_18  and  C_19
REMARK                            x       y       z     vdW  Elec       q    Type
REMARK                         _______ _______ _______ _____ _____    ______ ____
ROOT
ATOM      1  N   UNL     1     -31.291 -11.630  19.403  0.00  0.00    -0.311 N 
ATOM      2  C   UNL     1     -31.379 -10.346  18.757  0.00  0.00    +0.217 C 
ATOM      3  O   UNL     1     -31.150  -9.301  19.422  0.00  0.00    -0.275 OA
ATOM      4  H   UNL     1     -31.553 -12.505  18.899  0.00  0.00    +0.149 HD
ENDROOT
BRANCH   2   5
ATOM      5  C   UNL     1     -31.741 -10.181  17.297  0.00  0.00    +0.083 C 
ATOM      6  C   UNL     1     -30.598  -9.817  16.350  0.00  0.00    +0.022 C 
ATOM      7  C   UNL     1     -31.192 -11.227  16.328  0.00  0.00    +0.032 C 
BRANCH   7   8
ATOM      8  C   UNL     1     -32.061 -11.587  15.134  0.00  0.00    -0.043 A 
ATOM      9  C   UNL     1     -33.350 -11.029  15.074  0.00  0.00    +0.007 A 
ATOM     10  C   UNL     1     -34.203 -11.314  14.004  0.00  0.00    +0.038 A 
ATOM     11  C   UNL     1     -33.780 -12.159  12.977  0.00  0.00    +0.123 A 
ATOM     12  F   UNL     1     -34.608 -12.432  11.939  0.00  0.00    -0.205 F 
ATOM     13  C   UNL     1     -32.503 -12.721  13.018  0.00  0.00    +0.038 A 
ATOM     14  C   UNL     1     -31.645 -12.441  14.087  0.00  0.00    +0.007 A 
ENDBRANCH   7   8
ENDBRANCH   2   5
BRANCH   1  15
ATOM     15  C   UNL     1     -30.826 -11.772  20.782  0.00  0.00    +0.139 C 
BRANCH  15  18
ATOM     16  C   UNL     1     -27.221 -12.648  19.843  0.00  0.00    +0.134 A 
ATOM     17  C   UNL     1     -28.500 -12.051  19.840  0.00  0.00    +0.051 A 
ATOM     18  C   UNL     1     -29.455 -12.392  20.806  0.00  0.00    -0.027 A 
ATOM     19  C   UNL     1     -29.139 -13.344  21.779  0.00  0.00    +0.006 A 
ATOM     20  C   UNL     1     -27.879 -13.943  21.796  0.00  0.00    +0.019 A 
ATOM     21  C   UNL     1     -26.905 -13.607  20.837  0.00  0.00    +0.100 A 
BRANCH  16  23
ATOM     22  C   UNL     1     -26.417 -11.295  17.889  0.00  0.00    +0.277 C 
ATOM     23  O   UNL     1     -26.259 -12.310  18.875  0.00  0.00    -0.494 OA
ENDBRANCH  16  23
BRANCH  21  24
ATOM     24  C   UNL     1     -25.574 -14.269  20.891  0.00  0.00    +0.340 C 
ATOM     25  O   UNL     1     -24.938 -14.324  21.979  0.00  0.00    -0.245 OA
BRANCH  24  26
ATOM     26  O   UNL     1     -25.006 -14.833  19.752  0.00  0.00    -0.477 OA
ATOM     27  H   UNL     1     -24.659 -14.251  18.999  0.00  0.00    +0.295 HD
ENDBRANCH  24  26
ENDBRANCH  21  24
ENDBRANCH  15  18
ENDBRANCH   1  15
TORSDOF 7
ENDMDL
MODEL 2
REMARK VINA RESULT:    -4.290      3.725      6.809
REMARK INTER + INTRA:          -6.588
REMARK INTER:                  -5.857
REMARK INTRA:                  -0.730
REMARK UNBOUND:                -0.667
REMARK  Name = 
REMARK  8 active torsions:
REMARK  status: ('A' for Active; 'I' for Inactive)
REMARK    1  A    between atoms: C_1  and  O_2
REMARK    2  A    between atoms: O_2  and  C_3
REMARK    3  A    between atoms: C_5  and  C_12
REMARK    4  A    between atoms: C_8  and  C_9
REMARK    5  A    between atoms: C_9  and  O_11
REMARK    6  A    between atoms: C_12  and  N_13
REMARK    7  A    between atoms: C_14  and  C_16
REMARK    8  A    between atoms: C_18  and  C_19
REMARK                            x       y       z     vdW  Elec       q    Type
REMARK                         _______ _______ _______ _____ _____    ______ ____
ROOT
ATOM      1  N   UNL     1     -32.274 -12.668  19.359  0.00  0.00    -0.311 N 
ATOM      2  C   UNL     1     -30.934 -12.934  18.902  0.00  0.00    +0.217 C 
ATOM      3  O   UNL     1     -29.964 -12.350  19.456  0.00  0.00    -0.275 OA
ATOM      4  H   UNL     1     -33.099 -13.075  18.866  0.00  0.00    +0.149 HD
ENDROOT
BRANCH   2   5
ATOM      5  C   UNL     1     -30.621 -13.890  17.773  0.00  0.00    +0.083 C 
ATOM      6  C   UNL     1     -31.795 -14.697  17.219  0.00  0.00    +0.022 C 
ATOM      7  C   UNL     1     -31.200 -13.550  16.401  0.00  0.00    +0.032 C 
BRANCH   7   8
ATOM      8  C   UNL     1     -30.369 -13.933  15.186  0.00  0.00    -0.043 A 
ATOM      9  C   UNL     1     -29.081 -14.448  15.413  0.00  0.00    +0.007 A 
ATOM     10  C   UNL     1     -28.263 -14.823  14.343  0.00  0.00    +0.038 A 
ATOM     11  C   UNL     1     -28.721 -14.691  13.031  0.00  0.00    +0.123 A 
ATOM     12  F   UNL     1     -27.927 -15.058  11.995  0.00  0.00    -0.205 F 
ATOM     13  C   UNL     1     -29.998 -14.183  12.787  0.00  0.00    +0.038 A 
ATOM     14  C   UNL     1     -30.821 -13.805  13.852  0.00  0.00    +0.007 A 
ENDBRANCH   7   8
ENDBRANCH   2   5
BRANCH   1  15
ATOM     15  C   UNL     1     -32.542 -11.832  20.526  0.00  0.00    +0.139 C 
BRANCH  15  18
ATOM     16  C   UNL     1     -33.481  -8.842  18.330  0.00  0.00    +0.134 A 
ATOM     17  C   UNL     1     -33.042 -10.119  18.739  0.00  0.00    +0.051 A 
ATOM     18  C   UNL     1     -33.038 -10.479  20.093  0.00  0.00    -0.027 A 
ATOM     19  C   UNL     1     -33.465  -9.555  21.050  0.00  0.00    +0.006 A 
ATOM     20  C   UNL     1     -33.903  -8.288  20.662  0.00  0.00    +0.019 A 
ATOM     21  C   UNL     1     -33.920  -7.914  19.305  0.00  0.00    +0.100 A 
BRANCH  16  23
ATOM     22  C   UNL     1     -34.124  -9.212  15.932  0.00  0.00    +0.277 C 
ATOM     23  O   UNL     1     -33.486  -8.477  16.972  0.00  0.00    -0.494 OA
ENDBRANCH  16  23
BRANCH  21  24
ATOM     24  C   UNL     1     -34.395  -6.554  18.933  0.00  0.00    +0.340 C 
ATOM     25  O   UNL     1     -35.037  -5.857  19.767  0.00  0.00    -0.245 OA
BRANCH  24  26
ATOM     26  O   UNL     1     -34.146  -6.027  17.669  0.00  0.00    -0.477 OA
ATOM     27  H   UNL     1     -33.325  -5.459  17.493  0.00  0.00    +0.295 HD
ENDBRANCH  24  26
ENDBRANCH  21  24
ENDBRANCH  15  18
ENDBRANCH   1  15
TORSDOF 7
ENDMDL
MODEL 3
REMARK VINA RESULT:    -4.212      1.985      2.786
REMARK INTER + INTRA:          -6.480
REMARK INTER:                  -5.848
REMARK INTRA:                  -0.631
REMARK UNBOUND:                -0.667
REMARK  Name = 
REMARK  8 active torsions:
REMARK  status: ('A' for Active; 'I' for Inactive)
REMARK    1  A    between atoms: C_1  and  O_2
REMARK    2  A    between atoms: O_2  and  C_3
REMARK    3  A    between atoms: C_5  and  C_12
REMARK    4  A    between atoms: C_8  and  C_9
REMARK    5  A    between atoms: C_9  and  O_11
REMARK    6  A    between atoms: C_12  and  N_13
REMARK    7  A    between atoms: C_14  and  C_16
REMARK    8  A    between atoms: C_18  and  C_19
REMARK                            x       y       z     vdW  Elec       q    Type
REMARK                         _______ _______ _______ _____ _____    ______ ____
ROOT
ATOM      1  N   UNL     1     -33.497 -10.706  20.253  0.00  0.00    -0.311 N 
ATOM      2  C   UNL     1     -33.531  -9.634  19.291  0.00  0.00    +0.217 C 
ATOM      3  O   UNL     1     -32.881  -8.579  19.517  0.00  0.00    -0.275 OA
ATOM      4  H   UNL     1     -34.089 -11.557  20.129  0.00  0.00    +0.149 HD
ENDROOT
BRANCH   2   5
ATOM      5  C   UNL     1     -34.317  -9.708  18.001  0.00  0.00    +0.083 C 
ATOM      6  C   UNL     1     -34.736  -8.375  17.381  0.00  0.00    +0.022 C 
ATOM      7  C   UNL     1     -33.621  -9.204  16.739  0.00  0.00    +0.032 C 
BRANCH   7   8
ATOM      8  C   UNL     1     -33.956  -9.910  15.435  0.00  0.00    -0.043 A 
ATOM      9  C   UNL     1     -33.470 -11.218  15.258  0.00  0.00    +0.007 A 
ATOM     10  C   UNL     1     -33.742 -11.929  14.085  0.00  0.00    +0.038 A 
ATOM     11  C   UNL     1     -34.504 -11.344  13.073  0.00  0.00    +0.123 A 
ATOM     12  F   UNL     1     -34.769 -12.036  11.938  0.00  0.00    -0.205 F 
ATOM     13  C   UNL     1     -34.997 -10.048  13.232  0.00  0.00    +0.038 A 
ATOM     14  C   UNL     1     -34.728  -9.331  14.402  0.00  0.00    +0.007 A 
ENDBRANCH   7   8
ENDBRANCH   2   5
BRANCH   1  15
ATOM     15  C   UNL     1     -32.638 -10.659  21.434  0.00  0.00    +0.139 C 
BRANCH  15  18
ATOM     16  C   UNL     1     -30.093 -13.090  19.932  0.00  0.00    +0.134 A 
ATOM     17  C   UNL     1     -31.285 -12.372  20.164  0.00  0.00    +0.051 A 
ATOM     18  C   UNL     1     -31.356 -11.403  21.173  0.00  0.00    -0.027 A 
ATOM     19  C   UNL     1     -30.233 -11.153  21.967  0.00  0.00    +0.006 A 
ATOM     20  C   UNL     1     -29.047 -11.855  21.750  0.00  0.00    +0.019 A 
ATOM     21  C   UNL     1     -28.956 -12.827  20.735  0.00  0.00    +0.100 A 
BRANCH  16  23
ATOM     22  C   UNL     1     -30.558 -13.923  17.611  0.00  0.00    +0.277 C 
ATOM     23  O   UNL     1     -30.017 -14.064  18.921  0.00  0.00    -0.494 OA
ENDBRANCH  16  23
BRANCH  21  24
ATOM     24  C   UNL     1     -27.673 -13.551  20.537  0.00  0.00    +0.340 C 
ATOM     25  O   UNL     1     -26.881 -13.716  21.506  0.00  0.00    -0.245 OA
BRANCH  24  26
ATOM     26  O   UNL     1     -27.318 -14.057  19.289  0.00  0.00    -0.477 OA
ATOM     27  H   UNL     1     -26.603 -13.609  18.729  0.00  0.00    +0.295 HD
ENDBRANCH  24  26
ENDBRANCH  21  24
ENDBRANCH  15  18
ENDBRANCH   1  15
TORSDOF 7
ENDMDL
MODEL 4
REMARK VINA RESULT:    -4.194      3.833      6.676
REMARK INTER + INTRA:          -6.456
REMARK INTER:                  -5.664
REMARK INTRA:                  -0.792
REMARK UNBOUND:                -0.667
REMARK  Name = 
REMARK  8 active torsions:
REMARK  status: ('A' for Active; 'I' for Inactive)
REMARK    1  A    between atoms: C_1  and  O_2
REMARK    2  A    between atoms: O_2  and  C_3
REMARK    3  A    between atoms: C_5  and  C_12
REMARK    4  A    between atoms: C_8  and  C_9
REMARK    5  A    between atoms: C_9  and  O_11
REMARK    6  A    between atoms: C_12  and  N_13
REMARK    7  A    between atoms: C_14  and  C_16
REMARK    8  A    between atoms: C_18  and  C_19
REMARK                            x       y       z     vdW  Elec       q    Type
REMARK                         _______ _______ _______ _____ _____    ______ ____
ROOT
ATOM      1  N   UNL     1     -32.262 -12.652  19.349  0.00  0.00    -0.311 N 
ATOM      2  C   UNL     1     -30.929 -12.975  18.908  0.00  0.00    +0.217 C 
ATOM      3  O   UNL     1     -29.941 -12.455  19.491  0.00  0.00    -0.275 OA
ATOM      4  H   UNL     1     -33.098 -13.005  18.834  0.00  0.00    +0.149 HD
ENDROOT
BRANCH   2   5
ATOM      5  C   UNL     1     -30.646 -13.920  17.760  0.00  0.00    +0.083 C 
ATOM      6  C   UNL     1     -31.850 -14.654  17.170  0.00  0.00    +0.022 C 
ATOM      7  C   UNL     1     -31.185 -13.519  16.388  0.00  0.00    +0.032 C 
BRANCH   7   8
ATOM      8  C   UNL     1     -30.355 -13.915  15.177  0.00  0.00    -0.043 A 
ATOM      9  C   UNL     1     -29.044 -14.367  15.405  0.00  0.00    +0.007 A 
ATOM     10  C   UNL     1     -28.225 -14.750  14.339  0.00  0.00    +0.038 A 
ATOM     11  C   UNL     1     -28.705 -14.688  13.029  0.00  0.00    +0.123 A 
ATOM     12  F   UNL     1     -27.910 -15.062  11.997  0.00  0.00    -0.205 F 
ATOM     13  C   UNL     1     -30.005 -14.243  12.784  0.00  0.00    +0.038 A 
ATOM     14  C   UNL     1     -30.829 -13.857  13.847  0.00  0.00    +0.007 A 
ENDBRANCH   7   8
ENDBRANCH   2   5
BRANCH   1  15
ATOM     15  C   UNL     1     -32.507 -11.831  20.533  0.00  0.00    +0.139 C 
BRANCH  15  18
ATOM     16  C   UNL     1     -32.579  -8.006  20.451  0.00  0.00    +0.134 A 
ATOM     17  C   UNL     1     -32.264  -9.333  20.812  0.00  0.00    +0.051 A 
ATOM     18  C   UNL     1     -32.826 -10.417  20.126  0.00  0.00    -0.027 A 
ATOM     19  C   UNL     1     -33.719 -10.179  19.077  0.00  0.00    +0.006 A 
ATOM     20  C   UNL     1     -34.041  -8.873  18.708  0.00  0.00    +0.019 A 
ATOM     21  C   UNL     1     -33.479  -7.772  19.382  0.00  0.00    +0.100 A 
BRANCH  16  23
ATOM     22  C   UNL     1     -30.622  -6.680  21.294  0.00  0.00    +0.277 C 
ATOM     23  O   UNL     1     -32.018  -6.914  21.136  0.00  0.00    -0.494 OA
ENDBRANCH  16  23
BRANCH  21  24
ATOM     24  C   UNL     1     -33.848  -6.395  18.957  0.00  0.00    +0.340 C 
ATOM     25  O   UNL     1     -35.062  -6.063  18.871  0.00  0.00    -0.245 OA
BRANCH  24  26
ATOM     26  O   UNL     1     -32.871  -5.454  18.645  0.00  0.00    -0.477 OA
ATOM     27  H   UNL     1     -32.225  -5.607  17.879  0.00  0.00    +0.295 HD
ENDBRANCH  24  26
ENDBRANCH  21  24
ENDBRANCH  15  18
ENDBRANCH   1  15
TORSDOF 7
ENDMDL
MODEL 5
REMARK VINA RESULT:    -3.862      4.485      7.223
REMARK INTER + INTRA:          -5.997
REMARK INTER:                  -5.137
REMARK INTRA:                  -0.860
REMARK UNBOUND:                -0.667
REMARK  Name = 
REMARK  8 active torsions:
REMARK  status: ('A' for Active; 'I' for Inactive)
REMARK    1  A    between atoms: C_1  and  O_2
REMARK    2  A    between atoms: O_2  and  C_3
REMARK    3  A    between atoms: C_5  and  C_12
REMARK    4  A    between atoms: C_8  and  C_9
REMARK    5  A    between atoms: C_9  and  O_11
REMARK    6  A    between atoms: C_12  and  N_13
REMARK    7  A    between atoms: C_14  and  C_16
REMARK    8  A    between atoms: C_18  and  C_19
REMARK                            x       y       z     vdW  Elec       q    Type
REMARK                         _______ _______ _______ _____ _____    ______ ____
ROOT
ATOM      1  N   UNL     1     -33.479 -10.447  15.634  0.00  0.00    -0.311 N 
ATOM      2  C   UNL     1     -34.149 -10.767  16.868  0.00  0.00    +0.217 C 
ATOM      3  O   UNL     1     -35.050 -11.649  16.873  0.00  0.00    -0.275 OA
ATOM      4  H   UNL     1     -32.788  -9.667  15.586  0.00  0.00    +0.149 HD
ENDROOT
BRANCH   2   5
ATOM      5  C   UNL     1     -33.826 -10.091  18.183  0.00  0.00    +0.083 C 
ATOM      6  C   UNL     1     -33.180 -10.965  19.257  0.00  0.00    +0.022 C 
ATOM      7  C   UNL     1     -32.347  -9.913  18.521  0.00  0.00    +0.032 C 
BRANCH   7   8
ATOM      8  C   UNL     1     -31.963  -8.669  19.307  0.00  0.00    -0.043 A 
ATOM      9  C   UNL     1     -32.865  -7.590  19.302  0.00  0.00    +0.007 A 
ATOM     10  C   UNL     1     -32.578  -6.416  20.004  0.00  0.00    +0.038 A 
ATOM     11  C   UNL     1     -31.387  -6.304  20.724  0.00  0.00    +0.123 A 
ATOM     12  F   UNL     1     -31.113  -5.166  21.408  0.00  0.00    -0.205 F 
ATOM     13  C   UNL     1     -30.481  -7.366  20.743  0.00  0.00    +0.038 A 
ATOM     14  C   UNL     1     -30.762  -8.542  20.041  0.00  0.00    +0.007 A 
ENDBRANCH   7   8
ENDBRANCH   2   5
BRANCH   1  15
ATOM     15  C   UNL     1     -33.725 -11.194  14.403  0.00  0.00    +0.139 C 
BRANCH  15  18
ATOM     16  C   UNL     1     -30.571 -13.316  14.846  0.00  0.00    +0.134 A 
ATOM     17  C   UNL     1     -31.677 -12.484  15.123  0.00  0.00    +0.051 A 
ATOM     18  C   UNL     1     -32.563 -12.104  14.108  0.00  0.00    -0.027 A 
ATOM     19  C   UNL     1     -32.341 -12.547  12.800  0.00  0.00    +0.006 A 
ATOM     20  C   UNL     1     -31.253 -13.371  12.510  0.00  0.00    +0.019 A 
ATOM     21  C   UNL     1     -30.357 -13.768  13.521  0.00  0.00    +0.100 A 
BRANCH  16  23
ATOM     22  C   UNL     1     -29.709 -13.215  17.200  0.00  0.00    +0.277 C 
ATOM     23  O   UNL     1     -29.678 -13.700  15.862  0.00  0.00    -0.494 OA
ENDBRANCH  16  23
BRANCH  21  24
ATOM     24  C   UNL     1     -29.210 -14.646  13.169  0.00  0.00    +0.340 C 
ATOM     25  O   UNL     1     -29.069 -15.062  11.985  0.00  0.00    -0.245 OA
BRANCH  24  26
ATOM     26  O   UNL     1     -28.277 -15.029  14.129  0.00  0.00    -0.477 OA
ATOM     27  H   UNL     1     -27.323 -15.251  13.869  0.00  0.00    +0.295 HD
ENDBRANCH  24  26
ENDBRANCH  21  24
ENDBRANCH  15  18
ENDBRANCH   1  15
TORSDOF 7
ENDMDL
MODEL 6
REMARK VINA RESULT:    -3.805      3.098      6.189
REMARK INTER + INTRA:          -5.918
REMARK INTER:                  -5.264
REMARK INTRA:                  -0.654
REMARK UNBOUND:                -0.667
REMARK  Name = 
REMARK  8 active torsions:
REMARK  status: ('A' for Active; 'I' for Inactive)
REMARK    1  A    between atoms: C_1  and  O_2
REMARK    2  A    between atoms: O_2  and  C_3
REMARK    3  A    between atoms: C_5  and  C_12
REMARK    4  A    between atoms: C_8  and  C_9
REMARK    5  A    between atoms: C_9  and  O_11
REMARK    6  A    between atoms: C_12  and  N_13
REMARK    7  A    between atoms: C_14  and  C_16
REMARK    8  A    between atoms: C_18  and  C_19
REMARK                            x       y       z     vdW  Elec       q    Type
REMARK                         _______ _______ _______ _____ _____    ______ ____
ROOT
ATOM      1  N   UNL     1     -30.313 -11.719  20.252  0.00  0.00    -0.311 N 
ATOM      2  C   UNL     1     -29.343 -12.016  19.230  0.00  0.00    +0.217 C 
ATOM      3  O   UNL     1     -28.295 -11.321  19.150  0.00  0.00    -0.275 OA
ATOM      4  H   UNL     1     -31.225 -12.225  20.290  0.00  0.00    +0.149 HD
ENDROOT
BRANCH   2   5
ATOM      5  C   UNL     1     -29.517 -13.136  18.228  0.00  0.00    +0.083 C 
ATOM      6  C   UNL     1     -30.824 -13.924  18.307  0.00  0.00    +0.022 C 
ATOM      7  C   UNL     1     -30.588 -12.943  17.156  0.00  0.00    +0.032 C 
BRANCH   7   8
ATOM      8  C   UNL     1     -30.312 -13.545  15.787  0.00  0.00    -0.043 A 
ATOM      9  C   UNL     1     -31.127 -13.134  14.718  0.00  0.00    +0.007 A 
ATOM     10  C   UNL     1     -30.929 -13.644  13.432  0.00  0.00    +0.038 A 
ATOM     11  C   UNL     1     -29.913 -14.571  13.194  0.00  0.00    +0.123 A 
ATOM     12  F   UNL     1     -29.721 -15.062  11.946  0.00  0.00    -0.205 F 
ATOM     13  C   UNL     1     -29.092 -14.989  14.244  0.00  0.00    +0.038 A 
ATOM     14  C   UNL     1     -29.286 -14.483  15.533  0.00  0.00    +0.007 A 
ENDBRANCH   7   8
ENDBRANCH   2   5
BRANCH   1  15
ATOM     15  C   UNL     1     -30.070 -10.710  21.280  0.00  0.00    +0.139 C 
BRANCH  15  18
ATOM     16  C   UNL     1     -32.122  -8.099  19.377  0.00  0.00    +0.134 A 
ATOM     17  C   UNL     1     -31.471  -9.304  19.718  0.00  0.00    +0.051 A 
ATOM     18  C   UNL     1     -30.786  -9.432  20.933  0.00  0.00    -0.027 A 
ATOM     19  C   UNL     1     -30.738  -8.347  21.813  0.00  0.00    +0.006 A 
ATOM     20  C   UNL     1     -31.377  -7.150  21.491  0.00  0.00    +0.019 A 
ATOM     21  C   UNL     1     -32.077  -7.007  20.277  0.00  0.00    +0.100 A 
BRANCH  16  23
ATOM     22  C   UNL     1     -33.301  -9.050  17.377  0.00  0.00    +0.277 C 
ATOM     23  O   UNL     1     -32.810  -7.966  18.159  0.00  0.00    -0.494 OA
ENDBRANCH  16  23
BRANCH  21  24
ATOM     24  C   UNL     1     -32.744  -5.713  19.973  0.00  0.00    +0.340 C 
ATOM     25  O   UNL     1     -33.257  -5.030  20.902  0.00  0.00    -0.245 OA
BRANCH  24  26
ATOM     26  O   UNL     1     -32.819  -5.234  18.668  0.00  0.00    -0.477 OA
ATOM     27  H   UNL     1     -32.036  -4.751  18.244  0.00  0.00    +0.295 HD
ENDBRANCH  24  26
ENDBRANCH  21  24
ENDBRANCH  15  18
ENDBRANCH   1  15
TORSDOF 7
ENDMDL
MODEL 7
REMARK VINA RESULT:    -3.768      3.930      8.421
REMARK INTER + INTRA:          -5.867
REMARK INTER:                  -5.649
REMARK INTRA:                  -0.218
REMARK UNBOUND:                -0.667
REMARK  Name = 
REMARK  8 active torsions:
REMARK  status: ('A' for Active; 'I' for Inactive)
REMARK    1  A    between atoms: C_1  and  O_2
REMARK    2  A    between atoms: O_2  and  C_3
REMARK    3  A    between atoms: C_5  and  C_12
REMARK    4  A    between atoms: C_8  and  C_9
REMARK    5  A    between atoms: C_9  and  O_11
REMARK    6  A    between atoms: C_12  and  N_13
REMARK    7  A    between atoms: C_14  and  C_16
REMARK    8  A    between atoms: C_18  and  C_19
REMARK                            x       y       z     vdW  Elec       q    Type
REMARK                         _______ _______ _______ _____ _____    ______ ____
ROOT
ATOM      1  N   UNL     1     -31.985  -9.460  19.969  0.00  0.00    -0.311 N 
ATOM      2  C   UNL     1     -30.555  -9.585  20.091  0.00  0.00    +0.217 C 
ATOM      3  O   UNL     1     -29.809  -8.765  19.492  0.00  0.00    -0.275 OA
ATOM      4  H   UNL     1     -32.624 -10.171  20.387  0.00  0.00    +0.149 HD
ENDROOT
BRANCH   2   5
ATOM      5  C   UNL     1     -29.889 -10.667  20.912  0.00  0.00    +0.083 C 
ATOM      6  C   UNL     1     -30.765 -11.854  21.313  0.00  0.00    +0.022 C 
ATOM      7  C   UNL     1     -29.691 -12.022  20.236  0.00  0.00    +0.032 C 
BRANCH   7   8
ATOM      8  C   UNL     1     -28.450 -12.812  20.621  0.00  0.00    -0.043 A 
ATOM      9  C   UNL     1     -27.327 -12.712  19.782  0.00  0.00    +0.007 A 
ATOM     10  C   UNL     1     -26.151 -13.408  20.077  0.00  0.00    +0.038 A 
ATOM     11  C   UNL     1     -26.080 -14.213  21.216  0.00  0.00    +0.123 A 
ATOM     12  F   UNL     1     -24.938 -14.886  21.501  0.00  0.00    -0.205 F 
ATOM     13  C   UNL     1     -27.185 -14.323  22.061  0.00  0.00    +0.038 A 
ATOM     14  C   UNL     1     -28.364 -13.630  21.771  0.00  0.00    +0.007 A 
ENDBRANCH   7   8
ENDBRANCH   2   5
BRANCH   1  15
ATOM     15  C   UNL     1     -32.607  -8.338  19.267  0.00  0.00    +0.139 C 
BRANCH  15  18
ATOM     16  C   UNL     1     -32.739  -9.975  15.811  0.00  0.00    +0.134 A 
ATOM     17  C   UNL     1     -32.295  -9.580  17.090  0.00  0.00    +0.051 A 
ATOM     18  C   UNL     1     -33.097  -8.780  17.915  0.00  0.00    -0.027 A 
ATOM     19  C   UNL     1     -34.349  -8.360  17.457  0.00  0.00    +0.006 A 
ATOM     20  C   UNL     1     -34.803  -8.742  16.195  0.00  0.00    +0.019 A 
ATOM     21  C   UNL     1     -34.013  -9.552  15.357  0.00  0.00    +0.100 A 
BRANCH  16  23
ATOM     22  C   UNL     1     -31.214 -11.926  15.408  0.00  0.00    +0.277 C 
ATOM     23  O   UNL     1     -31.938 -10.777  14.980  0.00  0.00    -0.494 OA
ENDBRANCH  16  23
BRANCH  21  24
ATOM     24  C   UNL     1     -34.534  -9.937  14.018  0.00  0.00    +0.340 C 
ATOM     25  O   UNL     1     -34.864  -9.048  13.186  0.00  0.00    -0.245 OA
BRANCH  24  26
ATOM     26  O   UNL     1     -34.672 -11.275  13.659  0.00  0.00    -0.477 OA
ATOM     27  H   UNL     1     -34.636 -12.009  14.357  0.00  0.00    +0.295 HD
ENDBRANCH  24  26
ENDBRANCH  21  24
ENDBRANCH  15  18
ENDBRANCH   1  15
TORSDOF 7
ENDMDL
MODEL 8
REMARK VINA RESULT:    -3.551      4.363      8.797
REMARK INTER + INTRA:          -5.568
REMARK INTER:                  -5.058
REMARK INTRA:                  -0.511
REMARK UNBOUND:                -0.667
REMARK  Name = 
REMARK  8 active torsions:
REMARK  status: ('A' for Active; 'I' for Inactive)
REMARK    1  A    between atoms: C_1  and  O_2
REMARK    2  A    between atoms: O_2  and  C_3
REMARK    3  A    between atoms: C_5  and  C_12
REMARK    4  A    between atoms: C_8  and  C_9
REMARK    5  A    between atoms: C_9  and  O_11
REMARK    6  A    between atoms: C_12  and  N_13
REMARK    7  A    between atoms: C_14  and  C_16
REMARK    8  A    between atoms: C_18  and  C_19
REMARK                            x       y       z     vdW  Elec       q    Type
REMARK                         _______ _______ _______ _____ _____    ______ ____
ROOT
ATOM      1  N   UNL     1     -33.418 -12.743  14.924  0.00  0.00    -0.311 N 
ATOM      2  C   UNL     1     -31.983 -12.799  15.031  0.00  0.00    +0.217 C 
ATOM      3  O   UNL     1     -31.274 -12.278  14.129  0.00  0.00    -0.275 OA
ATOM      4  H   UNL     1     -34.027 -13.235  15.614  0.00  0.00    +0.149 HD
ENDROOT
BRANCH   2   5
ATOM      5  C   UNL     1     -31.267 -13.462  16.187  0.00  0.00    +0.083 C 
ATOM      6  C   UNL     1     -30.069 -14.342  15.831  0.00  0.00    +0.022 C 
ATOM      7  C   UNL     1     -29.850 -12.978  16.489  0.00  0.00    +0.032 C 
BRANCH   7   8
ATOM      8  C   UNL     1     -29.414 -12.981  17.946  0.00  0.00    -0.043 A 
ATOM      9  C   UNL     1     -30.405 -13.188  18.922  0.00  0.00    +0.007 A 
ATOM     10  C   UNL     1     -30.076 -13.206  20.281  0.00  0.00    +0.038 A 
ATOM     11  C   UNL     1     -28.752 -13.019  20.683  0.00  0.00    +0.123 A 
ATOM     12  F   UNL     1     -28.435 -13.039  22.001  0.00  0.00    -0.205 F 
ATOM     13  C   UNL     1     -27.755 -12.814  19.728  0.00  0.00    +0.038 A 
ATOM     14  C   UNL     1     -28.078 -12.794  18.367  0.00  0.00    +0.007 A 
ENDBRANCH   7   8
ENDBRANCH   2   5
BRANCH   1  15
ATOM     15  C   UNL     1     -34.087 -11.996  13.861  0.00  0.00    +0.139 C 
BRANCH  15  18
ATOM     16  C   UNL     1     -34.101  -8.792  15.955  0.00  0.00    +0.134 A 
ATOM     17  C   UNL     1     -33.904 -10.131  15.555  0.00  0.00    +0.051 A 
ATOM     18  C   UNL     1     -34.274 -10.561  14.273  0.00  0.00    -0.027 A 
ATOM     19  C   UNL     1     -34.854  -9.651  13.385  0.00  0.00    +0.006 A 
ATOM     20  C   UNL     1     -35.055  -8.324  13.765  0.00  0.00    +0.019 A 
ATOM     21  C   UNL     1     -34.683  -7.875  15.046  0.00  0.00    +0.100 A 
BRANCH  16  23
ATOM     22  C   UNL     1     -34.097  -9.003  18.455  0.00  0.00    +0.277 C 
ATOM     23  O   UNL     1     -33.733  -8.357  17.239  0.00  0.00    -0.494 OA
ENDBRANCH  16  23
BRANCH  21  24
ATOM     24  C   UNL     1     -34.914  -6.452  15.411  0.00  0.00    +0.340 C 
ATOM     25  O   UNL     1     -35.062  -5.582  14.509  0.00  0.00    -0.245 OA
BRANCH  24  26
ATOM     26  O   UNL     1     -34.968  -6.052  16.744  0.00  0.00    -0.477 OA
ATOM     27  H   UNL     1     -35.657  -6.439  17.377  0.00  0.00    +0.295 HD
ENDBRANCH  24  26
ENDBRANCH  21  24
ENDBRANCH  15  18
ENDBRANCH   1  15
TORSDOF 7
ENDMDL
