MODEL 1
REMARK VINA RESULT:    -3.762      0.000      0.000
REMARK INTER + INTRA:          -5.256
REMARK INTER:                  -4.642
REMARK INTRA:                  -0.614
REMARK UNBOUND:                -0.614
REMARK  Name = 
REMARK  6 active torsions:
REMARK  status: ('A' for Active; 'I' for Inactive)
REMARK    1  A    between atoms: C_1  and  C_2
REMARK    2  A    between atoms: C_2  and  C_3
REMARK    3  A    between atoms: C_3  and  C_4
REMARK    4  A    between atoms: C_3  and  N_6
REMARK    5  A    between atoms: C_4  and  C_5
REMARK    6  A    between atoms: C_10  and  N_14
REMARK                            x       y       z     vdW  Elec       q    Type
REMARK                         _______ _______ _______ _____ _____    ______ ____
ROOT
ATOM      1  N   UNL     1     -31.236 -13.065  20.152  0.00  0.00    -0.311 N 
ATOM      2  C   UNL     1     -29.804 -13.115  20.193  0.00  0.00    +0.217 A 
ATOM      3  N   UNL     1     -29.059 -12.359  19.345  0.00  0.00    -0.221 NA
ATOM      4  C   UNL     1     -27.704 -12.399  19.376  0.00  0.00    +0.150 A 
ATOM      5  C   UNL     1     -27.040 -13.218  20.299  0.00  0.00    +0.184 A 
ATOM      6  C   UNL     1     -27.830 -14.018  21.154  0.00  0.00    +0.152 A 
ATOM      7  N   UNL     1     -27.248 -14.960  22.061  0.00  0.00    -0.341 N 
ATOM      8  N   UNL     1     -29.186 -13.936  21.080  0.00  0.00    -0.198 NA
ATOM      9  H   UNL     1     -31.766 -13.649  20.838  0.00  0.00    +0.149 HD
ATOM     10  H   UNL     1     -27.859 -15.477  22.731  0.00  0.00    +0.144 HD
ATOM     11  H   UNL     1     -26.247 -15.244  22.000  0.00  0.00    +0.144 HD
ENDROOT
BRANCH   5  12
ATOM     12  N   UNL     1     -25.605 -13.200  20.366  0.00  0.00    +0.061 N 
ATOM     13  O   UNL     1     -24.954 -13.939  21.327  0.00  0.00    -0.126 OA
ATOM     14  O   UNL     1     -24.938 -12.698  19.438  0.00  0.00    -0.126 OA
ENDBRANCH   5  12
BRANCH   1  15
ATOM     15  C   UNL     1     -31.967 -12.203  19.214  0.00  0.00    +0.073 C 
BRANCH  15  17
ATOM     16  C   UNL     1     -31.594 -12.556  16.706  0.00  0.00    +0.006 C 
ATOM     17  C   UNL     1     -32.354 -13.018  17.949  0.00  0.00    +0.019 C 
ENDBRANCH  15  17
BRANCH  15  18
ATOM     18  C   UNL     1     -33.203 -11.605  19.924  0.00  0.00    +0.019 C 
ATOM     19  C   UNL     1     -32.844 -10.762  21.147  0.00  0.00    +0.006 C 
ENDBRANCH  15  18
ENDBRANCH   1  15
TORSDOF 4
ENDMDL
MODEL 2
REMARK VINA RESULT:    -3.574      3.719      5.402
REMARK INTER + INTRA:          -5.024
REMARK INTER:                  -4.597
REMARK INTRA:                  -0.426
REMARK UNBOUND:                -0.614
REMARK  Name = 
REMARK  6 active torsions:
REMARK  status: ('A' for Active; 'I' for Inactive)
REMARK    1  A    between atoms: C_1  and  C_2
REMARK    2  A    between atoms: C_2  and  C_3
REMARK    3  A    between atoms: C_3  and  C_4
REMARK    4  A    between atoms: C_3  and  N_6
REMARK    5  A    between atoms: C_4  and  C_5
REMARK    6  A    between atoms: C_10  and  N_14
REMARK                            x       y       z     vdW  Elec       q    Type
REMARK                         _______ _______ _______ _____ _____    ______ ____
ROOT
ATOM      1  N   UNL     1     -29.082 -14.146  14.961  0.00  0.00    -0.311 N 
ATOM      2  C   UNL     1     -29.363 -13.876  16.340  0.00  0.00    +0.217 A 
ATOM      3  N   UNL     1     -30.617 -14.037  16.837  0.00  0.00    -0.221 NA
ATOM      4  C   UNL     1     -30.894 -13.784  18.140  0.00  0.00    +0.150 A 
ATOM      5  C   UNL     1     -29.880 -13.362  19.010  0.00  0.00    +0.184 A 
ATOM      6  C   UNL     1     -28.588 -13.174  18.471  0.00  0.00    +0.152 A 
ATOM      7  N   UNL     1     -27.510 -12.651  19.254  0.00  0.00    -0.341 N 
ATOM      8  N   UNL     1     -28.368 -13.444  17.157  0.00  0.00    -0.198 NA
ATOM      9  H   UNL     1     -28.097 -14.028  14.630  0.00  0.00    +0.149 HD
ATOM     10  H   UNL     1     -26.552 -12.598  18.844  0.00  0.00    +0.144 HD
ATOM     11  H   UNL     1     -27.664 -12.203  20.183  0.00  0.00    +0.144 HD
ENDROOT
BRANCH   5  12
ATOM     12  N   UNL     1     -30.172 -13.163  20.403  0.00  0.00    +0.061 N 
ATOM     13  O   UNL     1     -29.185 -13.345  21.343  0.00  0.00    -0.126 OA
ATOM     14  O   UNL     1     -31.243 -12.623  20.751  0.00  0.00    -0.126 OA
ENDBRANCH   5  12
BRANCH   1  15
ATOM     15  C   UNL     1     -30.113 -14.610  14.023  0.00  0.00    +0.073 C 
BRANCH  15  17
ATOM     16  C   UNL     1     -31.741 -13.510  12.382  0.00  0.00    +0.006 C 
ATOM     17  C   UNL     1     -31.157 -13.482  13.794  0.00  0.00    +0.019 C 
ENDBRANCH  15  17
BRANCH  15  18
ATOM     18  C   UNL     1     -29.442 -15.062  12.706  0.00  0.00    +0.019 C 
ATOM     19  C   UNL     1     -27.949 -14.741  12.651  0.00  0.00    +0.006 C 
ENDBRANCH  15  18
ENDBRANCH   1  15
TORSDOF 4
ENDMDL
MODEL 3
REMARK VINA RESULT:    -3.561      3.441      4.733
REMARK INTER + INTRA:          -5.007
REMARK INTER:                  -4.349
REMARK INTRA:                  -0.659
REMARK UNBOUND:                -0.614
REMARK  Name = 
REMARK  6 active torsions:
REMARK  status: ('A' for Active; 'I' for Inactive)
REMARK    1  A    between atoms: C_1  and  C_2
REMARK    2  A    between atoms: C_2  and  C_3
REMARK    3  A    between atoms: C_3  and  C_4
REMARK    4  A    between atoms: C_3  and  N_6
REMARK    5  A    between atoms: C_4  and  C_5
REMARK    6  A    between atoms: C_10  and  N_14
REMARK                            x       y       z     vdW  Elec       q    Type
REMARK                         _______ _______ _______ _____ _____    ______ ____
ROOT
ATOM      1  N   UNL     1     -31.787 -12.923  14.888  0.00  0.00    -0.311 N 
ATOM      2  C   UNL     1     -31.005 -12.477  16.003  0.00  0.00    +0.217 A 
ATOM      3  N   UNL     1     -30.746 -11.156  16.185  0.00  0.00    -0.221 NA
ATOM      4  C   UNL     1     -30.007 -10.723  17.236  0.00  0.00    +0.150 A 
ATOM      5  C   UNL     1     -29.502 -11.638  18.170  0.00  0.00    +0.184 A 
ATOM      6  C   UNL     1     -29.757 -13.009  17.951  0.00  0.00    +0.152 A 
ATOM      7  N   UNL     1     -29.201 -14.026  18.790  0.00  0.00    -0.341 N 
ATOM      8  N   UNL     1     -30.506 -13.386  16.880  0.00  0.00    -0.198 NA
ATOM      9  H   UNL     1     -31.977 -13.948  14.802  0.00  0.00    +0.149 HD
ATOM     10  H   UNL     1     -29.474 -15.023  18.644  0.00  0.00    +0.144 HD
ATOM     11  H   UNL     1     -28.437 -13.829  19.471  0.00  0.00    +0.144 HD
ENDROOT
BRANCH   5  12
ATOM     12  N   UNL     1     -28.778 -11.160  19.315  0.00  0.00    +0.061 N 
ATOM     13  O   UNL     1     -29.381 -10.289  20.193  0.00  0.00    -0.126 OA
ATOM     14  O   UNL     1     -27.693 -11.686  19.639  0.00  0.00    -0.126 OA
ENDBRANCH   5  12
BRANCH   1  15
ATOM     15  C   UNL     1     -32.352 -11.994  13.900  0.00  0.00    +0.073 C 
BRANCH  15  17
ATOM     16  C   UNL     1     -33.530 -13.140  11.938  0.00  0.00    +0.006 C 
ATOM     17  C   UNL     1     -32.207 -12.595  12.475  0.00  0.00    +0.019 C 
ENDBRANCH  15  17
BRANCH  15  18
ATOM     18  C   UNL     1     -33.825 -11.694  14.262  0.00  0.00    +0.019 C 
ATOM     19  C   UNL     1     -34.075 -10.224  14.593  0.00  0.00    +0.006 C 
ENDBRANCH  15  18
ENDBRANCH   1  15
TORSDOF 4
ENDMDL
MODEL 4
REMARK VINA RESULT:    -3.537      3.555      5.141
REMARK INTER + INTRA:          -4.978
REMARK INTER:                  -4.325
REMARK INTRA:                  -0.653
REMARK UNBOUND:                -0.614
REMARK  Name = 
REMARK  6 active torsions:
REMARK  status: ('A' for Active; 'I' for Inactive)
REMARK    1  A    between atoms: C_1  and  C_2
REMARK    2  A    between atoms: C_2  and  C_3
REMARK    3  A    between atoms: C_3  and  C_4
REMARK    4  A    between atoms: C_3  and  N_6
REMARK    5  A    between atoms: C_4  and  C_5
REMARK    6  A    between atoms: C_10  and  N_14
REMARK                            x       y       z     vdW  Elec       q    Type
REMARK                         _______ _______ _______ _____ _____    ______ ____
ROOT
ATOM      1  N   UNL     1     -31.036 -14.073  15.251  0.00  0.00    -0.311 N 
ATOM      2  C   UNL     1     -30.707 -13.348  16.444  0.00  0.00    +0.217 A 
ATOM      3  N   UNL     1     -30.179 -12.098  16.372  0.00  0.00    -0.221 NA
ATOM      4  C   UNL     1     -29.865 -11.404  17.494  0.00  0.00    +0.150 A 
ATOM      5  C   UNL     1     -30.092 -11.963  18.759  0.00  0.00    +0.184 A 
ATOM      6  C   UNL     1     -30.615 -13.273  18.815  0.00  0.00    +0.152 A 
ATOM      7  N   UNL     1     -30.789 -13.967  20.054  0.00  0.00    -0.341 N 
ATOM      8  N   UNL     1     -30.914 -13.922  17.657  0.00  0.00    -0.198 NA
ATOM      9  H   UNL     1     -31.459 -15.023  15.357  0.00  0.00    +0.149 HD
ATOM     10  H   UNL     1     -31.250 -14.903  20.062  0.00  0.00    +0.144 HD
ATOM     11  H   UNL     1     -30.364 -13.629  20.944  0.00  0.00    +0.144 HD
ENDROOT
BRANCH   5  12
ATOM     12  N   UNL     1     -29.817 -11.190  19.939  0.00  0.00    +0.061 N 
ATOM     13  O   UNL     1     -29.511 -11.827  21.120  0.00  0.00    -0.126 OA
ATOM     14  O   UNL     1     -29.641  -9.956  19.858  0.00  0.00    -0.126 OA
ENDBRANCH   5  12
BRANCH   1  15
ATOM     15  C   UNL     1     -30.832 -13.513  13.909  0.00  0.00    +0.073 C 
BRANCH  15  17
ATOM     16  C   UNL     1     -28.667 -14.597  13.078  0.00  0.00    +0.006 C 
ATOM     17  C   UNL     1     -30.193 -14.588  12.987  0.00  0.00    +0.019 C 
ENDBRANCH  15  17
BRANCH  15  18
ATOM     18  C   UNL     1     -32.182 -12.999  13.358  0.00  0.00    +0.019 C 
ATOM     19  C   UNL     1     -32.474 -13.480  11.938  0.00  0.00    +0.006 C 
ENDBRANCH  15  18
ENDBRANCH   1  15
TORSDOF 4
ENDMDL
MODEL 5
REMARK VINA RESULT:    -3.448      3.521      4.784
REMARK INTER + INTRA:          -4.868
REMARK INTER:                  -4.215
REMARK INTRA:                  -0.653
REMARK UNBOUND:                -0.614
REMARK  Name = 
REMARK  6 active torsions:
REMARK  status: ('A' for Active; 'I' for Inactive)
REMARK    1  A    between atoms: C_1  and  C_2
REMARK    2  A    between atoms: C_2  and  C_3
REMARK    3  A    between atoms: C_3  and  C_4
REMARK    4  A    between atoms: C_3  and  N_6
REMARK    5  A    between atoms: C_4  and  C_5
REMARK    6  A    between atoms: C_10  and  N_14
REMARK                            x       y       z     vdW  Elec       q    Type
REMARK                         _______ _______ _______ _____ _____    ______ ____
ROOT
ATOM      1  N   UNL     1     -33.103 -12.613  14.985  0.00  0.00    -0.311 N 
ATOM      2  C   UNL     1     -31.951 -12.531  15.834  0.00  0.00    +0.217 A 
ATOM      3  N   UNL     1     -31.259 -11.368  15.953  0.00  0.00    -0.221 NA
ATOM      4  C   UNL     1     -30.168 -11.279  16.754  0.00  0.00    +0.150 A 
ATOM      5  C   UNL     1     -29.738 -12.391  17.490  0.00  0.00    +0.184 A 
ATOM      6  C   UNL     1     -30.453 -13.599  17.334  0.00  0.00    +0.152 A 
ATOM      7  N   UNL     1     -30.034 -14.813  17.965  0.00  0.00    -0.341 N 
ATOM      8  N   UNL     1     -31.541 -13.630  16.518  0.00  0.00    -0.198 NA
ATOM      9  H   UNL     1     -33.615 -13.524  14.942  0.00  0.00    +0.149 HD
ATOM     10  H   UNL     1     -30.629 -15.667  17.889  0.00  0.00    +0.144 HD
ATOM     11  H   UNL     1     -29.092 -14.917  18.400  0.00  0.00    +0.144 HD
ENDROOT
BRANCH   5  12
ATOM     12  N   UNL     1     -28.622 -12.264  18.386  0.00  0.00    +0.061 N 
ATOM     13  O   UNL     1     -27.694 -13.275  18.472  0.00  0.00    -0.126 OA
ATOM     14  O   UNL     1     -28.367 -11.166  18.924  0.00  0.00    -0.126 OA
ENDBRANCH   5  12
BRANCH   1  15
ATOM     15  C   UNL     1     -33.597 -11.465  14.214  0.00  0.00    +0.073 C 
BRANCH  15  17
ATOM     16  C   UNL     1     -33.429 -13.038  12.201  0.00  0.00    +0.006 C 
ATOM     17  C   UNL     1     -34.261 -11.964  12.901  0.00  0.00    +0.019 C 
ENDBRANCH  15  17
BRANCH  15  18
ATOM     18  C   UNL     1     -34.573 -10.643  15.087  0.00  0.00    +0.019 C 
ATOM     19  C   UNL     1     -34.149  -9.184  15.251  0.00  0.00    +0.006 C 
ENDBRANCH  15  18
ENDBRANCH   1  15
TORSDOF 4
ENDMDL
MODEL 6
REMARK VINA RESULT:    -3.404      5.085      6.836
REMARK INTER + INTRA:          -4.814
REMARK INTER:                  -4.521
REMARK INTRA:                  -0.293
REMARK UNBOUND:                -0.614
REMARK  Name = 
REMARK  6 active torsions:
REMARK  status: ('A' for Active; 'I' for Inactive)
REMARK    1  A    between atoms: C_1  and  C_2
REMARK    2  A    between atoms: C_2  and  C_3
REMARK    3  A    between atoms: C_3  and  C_4
REMARK    4  A    between atoms: C_3  and  N_6
REMARK    5  A    between atoms: C_4  and  C_5
REMARK    6  A    between atoms: C_10  and  N_14
REMARK                            x       y       z     vdW  Elec       q    Type
REMARK                         _______ _______ _______ _____ _____    ______ ____
ROOT
ATOM      1  N   UNL     1     -32.117 -11.804  14.069  0.00  0.00    -0.311 N 
ATOM      2  C   UNL     1     -31.837 -11.062  15.263  0.00  0.00    +0.217 A 
ATOM      3  N   UNL     1     -30.754 -11.360  16.027  0.00  0.00    -0.221 NA
ATOM      4  C   UNL     1     -30.480 -10.665  17.159  0.00  0.00    +0.150 A 
ATOM      5  C   UNL     1     -31.309  -9.608  17.558  0.00  0.00    +0.184 A 
ATOM      6  C   UNL     1     -32.446  -9.330  16.768  0.00  0.00    +0.152 A 
ATOM      7  N   UNL     1     -33.406  -8.338  17.145  0.00  0.00    -0.341 N 
ATOM      8  N   UNL     1     -32.670 -10.059  15.642  0.00  0.00    -0.198 NA
ATOM      9  H   UNL     1     -32.950 -11.524  13.503  0.00  0.00    +0.149 HD
ATOM     10  H   UNL     1     -34.191  -8.106  16.498  0.00  0.00    +0.144 HD
ATOM     11  H   UNL     1     -33.425  -7.918  18.099  0.00  0.00    +0.144 HD
ENDROOT
BRANCH   5  12
ATOM     12  N   UNL     1     -30.970  -8.837  18.722  0.00  0.00    +0.061 N 
ATOM     13  O   UNL     1     -29.771  -9.052  19.361  0.00  0.00    -0.126 OA
ATOM     14  O   UNL     1     -31.646  -7.834  19.033  0.00  0.00    -0.126 OA
ENDBRANCH   5  12
BRANCH   1  15
ATOM     15  C   UNL     1     -31.260 -12.904  13.606  0.00  0.00    +0.073 C 
BRANCH  15  17
ATOM     16  C   UNL     1     -29.904 -14.767  14.720  0.00  0.00    +0.006 C 
ATOM     17  C   UNL     1     -31.245 -14.037  14.668  0.00  0.00    +0.019 C 
ENDBRANCH  15  17
BRANCH  15  18
ATOM     18  C   UNL     1     -31.760 -13.399  12.229  0.00  0.00    +0.019 C 
ATOM     19  C   UNL     1     -33.268 -13.235  12.043  0.00  0.00    +0.006 C 
ENDBRANCH  15  18
ENDBRANCH   1  15
TORSDOF 4
ENDMDL
MODEL 7
REMARK VINA RESULT:    -3.348      2.357      2.839
REMARK INTER + INTRA:          -4.745
REMARK INTER:                  -4.140
REMARK INTRA:                  -0.605
REMARK UNBOUND:                -0.614
REMARK  Name = 
REMARK  6 active torsions:
REMARK  status: ('A' for Active; 'I' for Inactive)
REMARK    1  A    between atoms: C_1  and  C_2
REMARK    2  A    between atoms: C_2  and  C_3
REMARK    3  A    between atoms: C_3  and  C_4
REMARK    4  A    between atoms: C_3  and  N_6
REMARK    5  A    between atoms: C_4  and  C_5
REMARK    6  A    between atoms: C_10  and  N_14
REMARK                            x       y       z     vdW  Elec       q    Type
REMARK                         _______ _______ _______ _____ _____    ______ ____
ROOT
ATOM      1  N   UNL     1     -32.711 -11.554  18.258  0.00  0.00    -0.311 N 
ATOM      2  C   UNL     1     -31.285 -11.636  18.377  0.00  0.00    +0.217 A 
ATOM      3  N   UNL     1     -30.497 -10.592  18.009  0.00  0.00    -0.221 NA
ATOM      4  C   UNL     1     -29.146 -10.660  18.116  0.00  0.00    +0.150 A 
ATOM      5  C   UNL     1     -28.534 -11.813  18.625  0.00  0.00    +0.184 A 
ATOM      6  C   UNL     1     -29.366 -12.898  18.977  0.00  0.00    +0.152 A 
ATOM      7  N   UNL     1     -28.831 -14.152  19.412  0.00  0.00    -0.341 N 
ATOM      8  N   UNL     1     -30.714 -12.774  18.850  0.00  0.00    -0.198 NA
ATOM      9  H   UNL     1     -33.276 -12.375  18.574  0.00  0.00    +0.149 HD
ATOM     10  H   UNL     1     -29.476 -14.905  19.737  0.00  0.00    +0.144 HD
ATOM     11  H   UNL     1     -27.822 -14.393  19.304  0.00  0.00    +0.144 HD
ENDROOT
BRANCH   5  12
ATOM     12  N   UNL     1     -27.108 -11.845  18.797  0.00  0.00    +0.061 N 
ATOM     13  O   UNL     1     -26.516 -12.922  19.415  0.00  0.00    -0.126 OA
ATOM     14  O   UNL     1     -26.383 -11.017  18.207  0.00  0.00    -0.126 OA
ENDBRANCH   5  12
BRANCH   1  15
ATOM     15  C   UNL     1     -33.391 -10.355  17.750  0.00  0.00    +0.073 C 
BRANCH  15  17
ATOM     16  C   UNL     1     -34.263 -11.745  15.784  0.00  0.00    +0.006 C 
ATOM     17  C   UNL     1     -34.627 -10.775  16.908  0.00  0.00    +0.019 C 
ENDBRANCH  15  17
BRANCH  15  18
ATOM     18  C   UNL     1     -33.774  -9.441  18.936  0.00  0.00    +0.019 C 
ATOM     19  C   UNL     1     -32.997  -8.125  18.955  0.00  0.00    +0.006 C 
ENDBRANCH  15  18
ENDBRANCH   1  15
TORSDOF 4
ENDMDL
MODEL 8
REMARK VINA RESULT:    -3.319      5.544      7.152
REMARK INTER + INTRA:          -4.709
REMARK INTER:                  -4.042
REMARK INTRA:                  -0.668
REMARK UNBOUND:                -0.614
REMARK  Name = 
REMARK  6 active torsions:
REMARK  status: ('A' for Active; 'I' for Inactive)
REMARK    1  A    between atoms: C_1  and  C_2
REMARK    2  A    between atoms: C_2  and  C_3
REMARK    3  A    between atoms: C_3  and  C_4
REMARK    4  A    between atoms: C_3  and  N_6
REMARK    5  A    between atoms: C_4  and  C_5
REMARK    6  A    between atoms: C_10  and  N_14
REMARK                            x       y       z     vdW  Elec       q    Type
REMARK                         _______ _______ _______ _____ _____    ______ ____
ROOT
ATOM      1  N   UNL     1     -31.674 -12.000  13.881  0.00  0.00    -0.311 N 
ATOM      2  C   UNL     1     -32.101 -11.671  15.209  0.00  0.00    +0.217 A 
ATOM      3  N   UNL     1     -32.588 -12.630  16.038  0.00  0.00    -0.221 NA
ATOM      4  C   UNL     1     -32.995 -12.329  17.297  0.00  0.00    +0.150 A 
ATOM      5  C   UNL     1     -32.908 -11.014  17.774  0.00  0.00    +0.184 A 
ATOM      6  C   UNL     1     -32.425 -10.025  16.890  0.00  0.00    +0.152 A 
ATOM      7  N   UNL     1     -32.391  -8.640  17.248  0.00  0.00    -0.341 N 
ATOM      8  N   UNL     1     -32.029 -10.384  15.639  0.00  0.00    -0.198 NA
ATOM      9  H   UNL     1     -31.286 -11.231  13.287  0.00  0.00    +0.149 HD
ATOM     10  H   UNL     1     -31.956  -7.949  16.599  0.00  0.00    +0.144 HD
ATOM     11  H   UNL     1     -32.894  -8.270  18.083  0.00  0.00    +0.144 HD
ENDROOT
BRANCH   5  12
ATOM     12  N   UNL     1     -33.279 -10.723  19.131  0.00  0.00    +0.061 N 
ATOM     13  O   UNL     1     -32.922 -11.587  20.140  0.00  0.00    -0.126 OA
ATOM     14  O   UNL     1     -33.731  -9.598  19.433  0.00  0.00    -0.126 OA
ENDBRANCH   5  12
BRANCH   1  15
ATOM     15  C   UNL     1     -31.730 -13.369  13.352  0.00  0.00    +0.073 C 
BRANCH  15  17
ATOM     16  C   UNL     1     -33.764 -12.726  11.938  0.00  0.00    +0.006 C 
ATOM     17  C   UNL     1     -32.372 -13.357  11.938  0.00  0.00    +0.019 C 
ENDBRANCH  15  17
BRANCH  15  18
ATOM     18  C   UNL     1     -30.307 -13.974  13.344  0.00  0.00    +0.019 C 
ATOM     19  C   UNL     1     -30.024 -14.862  14.554  0.00  0.00    +0.006 C 
ENDBRANCH  15  18
ENDBRANCH   1  15
TORSDOF 4
ENDMDL
