MODEL 1
REMARK VINA RESULT:    -4.550      0.000      0.000
REMARK INTER + INTRA:          -9.605
REMARK INTER:                  -7.209
REMARK INTRA:                  -2.395
REMARK UNBOUND:                -2.395
REMARK  Name = 
REMARK  12 active torsions:
REMARK  status: ('A' for Active; 'I' for Inactive)
REMARK    1  A    between atoms: C_1  and  O_2
REMARK    2  A    between atoms: O_2  and  C_3
REMARK    3  A    between atoms: C_3  and  C_4
REMARK    4  A    between atoms: C_4  and  O_5
REMARK    5  A    between atoms: O_5  and  C_6
REMARK    6  A    between atoms: C_11  and  C_12
REMARK    7  A    between atoms: N_14  and  C_15
REMARK    8  A    between atoms: C_15  and  C_16
REMARK    9  A    between atoms: C_15  and  C_20
REMARK   10  A    between atoms: C_16  and  O_18
REMARK   11  A    between atoms: O_18  and  C_19
REMARK   12  A    between atoms: C_24  and  C_26
REMARK                            x       y       z     vdW  Elec       q    Type
REMARK                         _______ _______ _______ _____ _____    ______ ____
ROOT
ATOM      1  C   UNL     1     -30.783 -10.270  16.143  0.00  0.00    +0.248 C 
ATOM      2  O   UNL     1     -30.189  -9.196  15.856  0.00  0.00    -0.270 OA
ATOM      3  N   UNL     1     -30.381 -11.042  17.288  0.00  0.00    -0.295 N 
ATOM      4  H   UNL     1     -30.639 -12.053  17.312  0.00  0.00    +0.150 HD
ENDROOT
BRANCH   1  10
ATOM      5  C   UNL     1     -31.714 -11.917  14.485  0.00  0.00    +0.133 A 
ATOM      6  C   UNL     1     -32.761 -12.318  13.630  0.00  0.00    +0.046 A 
ATOM      7  C   UNL     1     -33.958 -11.600  13.590  0.00  0.00    +0.004 A 
ATOM      8  C   UNL     1     -34.126 -10.475  14.395  0.00  0.00    +0.001 A 
ATOM      9  C   UNL     1     -33.092 -10.052  15.232  0.00  0.00    +0.017 A 
ATOM     10  C   UNL     1     -31.875 -10.753  15.267  0.00  0.00    +0.078 A 
BRANCH   5  11
ATOM     11  O   UNL     1     -30.521 -12.651  14.600  0.00  0.00    -0.489 OA
BRANCH  11  12
ATOM     12  C   UNL     1     -30.407 -14.013  15.011  0.00  0.00    +0.257 C 
BRANCH  12  13
ATOM     13  C   UNL     1     -29.320 -14.180  16.069  0.00  0.00    +0.200 C 
BRANCH  13  15
ATOM     14  C   UNL     1     -31.240 -14.558  17.280  0.00  0.00    +0.194 C 
ATOM     15  O   UNL     1     -29.899 -14.131  17.357  0.00  0.00    -0.380 OA
ENDBRANCH  13  15
ENDBRANCH  12  13
ENDBRANCH  11  12
ENDBRANCH   5  11
ENDBRANCH   1  10
BRANCH   3  16
ATOM     16  C   UNL     1     -29.671 -10.497  18.452  0.00  0.00    +0.213 C 
BRANCH  16  17
ATOM     17  C   UNL     1     -29.291 -11.605  19.419  0.00  0.00    -0.016 A 
ATOM     18  C   UNL     1     -30.248 -12.254  20.223  0.00  0.00    +0.006 A 
ATOM     19  C   UNL     1     -29.869 -13.307  21.059  0.00  0.00    +0.001 A 
ATOM     20  C   UNL     1     -28.539 -13.731  21.099  0.00  0.00    +0.012 A 
ATOM     21  C   UNL     1     -27.573 -13.122  20.280  0.00  0.00    +0.055 A 
ATOM     22  C   UNL     1     -27.957 -12.053  19.451  0.00  0.00    +0.018 A 
BRANCH  21  23
ATOM     23  C   UNL     1     -26.127 -13.548  20.370  0.00  0.00    +0.417 C 
ATOM     24  F   UNL     1     -25.727 -13.623  21.694  0.00  0.00    -0.166 F 
ATOM     25  F   UNL     1     -25.339 -12.620  19.713  0.00  0.00    -0.166 F 
ATOM     26  F   UNL     1     -25.937 -14.791  19.790  0.00  0.00    -0.166 F 
ENDBRANCH  21  23
ENDBRANCH  16  17
BRANCH  16  27
ATOM     27  C   UNL     1     -30.430  -9.363  19.092  0.00  0.00    +0.332 C 
ATOM     28  O   UNL     1     -29.842  -8.624  19.931  0.00  0.00    -0.248 OA
BRANCH  27  29
ATOM     29  O   UNL     1     -31.763  -9.114  18.745  0.00  0.00    -0.466 OA
ATOM     30  C   UNL     1     -32.859  -9.608  19.501  0.00  0.00    +0.280 C 
ENDBRANCH  27  29
ENDBRANCH  16  27
ENDBRANCH   3  16
TORSDOF 10
ENDMDL
MODEL 2
REMARK VINA RESULT:    -4.353      3.289      5.230
REMARK INTER + INTRA:          -9.293
REMARK INTER:                  -7.672
REMARK INTRA:                  -1.621
REMARK UNBOUND:                -2.395
REMARK  Name = 
REMARK  12 active torsions:
REMARK  status: ('A' for Active; 'I' for Inactive)
REMARK    1  A    between atoms: C_1  and  O_2
REMARK    2  A    between atoms: O_2  and  C_3
REMARK    3  A    between atoms: C_3  and  C_4
REMARK    4  A    between atoms: C_4  and  O_5
REMARK    5  A    between atoms: O_5  and  C_6
REMARK    6  A    between atoms: C_11  and  C_12
REMARK    7  A    between atoms: N_14  and  C_15
REMARK    8  A    between atoms: C_15  and  C_16
REMARK    9  A    between atoms: C_15  and  C_20
REMARK   10  A    between atoms: C_16  and  O_18
REMARK   11  A    between atoms: O_18  and  C_19
REMARK   12  A    between atoms: C_24  and  C_26
REMARK                            x       y       z     vdW  Elec       q    Type
REMARK                         _______ _______ _______ _____ _____    ______ ____
ROOT
ATOM      1  C   UNL     1     -29.877 -13.771  17.081  0.00  0.00    +0.248 C 
ATOM      2  O   UNL     1     -30.518 -14.549  17.838  0.00  0.00    -0.270 OA
ATOM      3  N   UNL     1     -29.154 -12.655  17.627  0.00  0.00    -0.295 N 
ATOM      4  H   UNL     1     -28.926 -11.859  16.990  0.00  0.00    +0.150 HD
ENDROOT
BRANCH   1  10
ATOM      5  C   UNL     1     -31.016 -13.587  14.846  0.00  0.00    +0.133 A 
ATOM      6  C   UNL     1     -31.025 -13.858  13.463  0.00  0.00    +0.046 A 
ATOM      7  C   UNL     1     -29.933 -14.481  12.855  0.00  0.00    +0.004 A 
ATOM      8  C   UNL     1     -28.823 -14.843  13.615  0.00  0.00    +0.001 A 
ATOM      9  C   UNL     1     -28.806 -14.601  14.990  0.00  0.00    +0.017 A 
ATOM     10  C   UNL     1     -29.906 -13.994  15.618  0.00  0.00    +0.078 A 
BRANCH   5  11
ATOM     11  O   UNL     1     -32.069 -12.905  15.481  0.00  0.00    -0.489 OA
BRANCH  11  12
ATOM     12  C   UNL     1     -32.581 -11.623  15.117  0.00  0.00    +0.257 C 
BRANCH  12  13
ATOM     13  C   UNL     1     -34.083 -11.684  14.854  0.00  0.00    +0.200 C 
BRANCH  13  15
ATOM     14  C   UNL     1     -34.791 -10.847  16.878  0.00  0.00    +0.194 C 
ATOM     15  O   UNL     1     -34.763 -11.991  16.055  0.00  0.00    -0.380 OA
ENDBRANCH  13  15
ENDBRANCH  12  13
ENDBRANCH  11  12
ENDBRANCH   5  11
ENDBRANCH   1  10
BRANCH   3  16
ATOM     16  C   UNL     1     -28.670 -12.571  19.011  0.00  0.00    +0.213 C 
BRANCH  16  17
ATOM     17  C   UNL     1     -29.451 -11.532  19.795  0.00  0.00    -0.016 A 
ATOM     18  C   UNL     1     -29.348 -11.421  21.195  0.00  0.00    +0.006 A 
ATOM     19  C   UNL     1     -30.040 -10.416  21.875  0.00  0.00    +0.001 A 
ATOM     20  C   UNL     1     -30.833  -9.506  21.172  0.00  0.00    +0.012 A 
ATOM     21  C   UNL     1     -30.924  -9.575  19.772  0.00  0.00    +0.055 A 
ATOM     22  C   UNL     1     -30.237 -10.598  19.094  0.00  0.00    +0.018 A 
BRANCH  21  23
ATOM     23  C   UNL     1     -31.828  -8.625  19.023  0.00  0.00    +0.417 C 
ATOM     24  F   UNL     1     -31.614  -8.728  17.659  0.00  0.00    -0.166 F 
ATOM     25  F   UNL     1     -31.557  -7.329  19.426  0.00  0.00    -0.166 F 
ATOM     26  F   UNL     1     -33.161  -8.904  19.275  0.00  0.00    -0.166 F 
ENDBRANCH  21  23
ENDBRANCH  16  17
BRANCH  16  27
ATOM     27  C   UNL     1     -27.175 -12.385  19.072  0.00  0.00    +0.332 C 
ATOM     28  O   UNL     1     -26.675 -11.288  18.694  0.00  0.00    -0.248 OA
BRANCH  27  29
ATOM     29  O   UNL     1     -26.350 -13.404  19.563  0.00  0.00    -0.466 OA
ATOM     30  C   UNL     1     -26.683 -14.178  20.706  0.00  0.00    +0.280 C 
ENDBRANCH  27  29
ENDBRANCH  16  27
ENDBRANCH   3  16
TORSDOF 10
ENDMDL
MODEL 3
REMARK VINA RESULT:    -4.092      3.791      6.344
REMARK INTER + INTRA:          -8.879
REMARK INTER:                  -6.566
REMARK INTRA:                  -2.313
REMARK UNBOUND:                -2.395
REMARK  Name = 
REMARK  12 active torsions:
REMARK  status: ('A' for Active; 'I' for Inactive)
REMARK    1  A    between atoms: C_1  and  O_2
REMARK    2  A    between atoms: O_2  and  C_3
REMARK    3  A    between atoms: C_3  and  C_4
REMARK    4  A    between atoms: C_4  and  O_5
REMARK    5  A    between atoms: O_5  and  C_6
REMARK    6  A    between atoms: C_11  and  C_12
REMARK    7  A    between atoms: N_14  and  C_15
REMARK    8  A    between atoms: C_15  and  C_16
REMARK    9  A    between atoms: C_15  and  C_20
REMARK   10  A    between atoms: C_16  and  O_18
REMARK   11  A    between atoms: O_18  and  C_19
REMARK   12  A    between atoms: C_24  and  C_26
REMARK                            x       y       z     vdW  Elec       q    Type
REMARK                         _______ _______ _______ _____ _____    ______ ____
ROOT
ATOM      1  C   UNL     1     -30.230 -10.196  18.055  0.00  0.00    +0.248 C 
ATOM      2  O   UNL     1     -29.022  -9.898  18.258  0.00  0.00    -0.270 OA
ATOM      3  N   UNL     1     -30.576 -11.417  17.381  0.00  0.00    -0.295 N 
ATOM      4  H   UNL     1     -31.517 -11.481  16.934  0.00  0.00    +0.150 HD
ENDROOT
BRANCH   1  10
ATOM      5  C   UNL     1     -32.546  -9.238  17.835  0.00  0.00    +0.133 A 
ATOM      6  C   UNL     1     -33.513  -8.297  18.243  0.00  0.00    +0.046 A 
ATOM      7  C   UNL     1     -33.253  -7.426  19.302  0.00  0.00    +0.004 A 
ATOM      8  C   UNL     1     -32.029  -7.477  19.965  0.00  0.00    +0.001 A 
ATOM      9  C   UNL     1     -31.051  -8.387  19.561  0.00  0.00    +0.017 A 
ATOM     10  C   UNL     1     -31.291  -9.256  18.483  0.00  0.00    +0.078 A 
BRANCH   5  11
ATOM     11  O   UNL     1     -32.796 -10.173  16.816  0.00  0.00    -0.489 OA
BRANCH  11  12
ATOM     12  C   UNL     1     -33.906 -11.067  16.749  0.00  0.00    +0.257 C 
BRANCH  12  13
ATOM     13  C   UNL     1     -34.839 -10.701  15.598  0.00  0.00    +0.200 C 
BRANCH  13  15
ATOM     14  C   UNL     1     -34.865  -8.845  14.237  0.00  0.00    +0.194 C 
ATOM     15  O   UNL     1     -34.121  -9.981  14.616  0.00  0.00    -0.380 OA
ENDBRANCH  13  15
ENDBRANCH  12  13
ENDBRANCH  11  12
ENDBRANCH   5  11
ENDBRANCH   1  10
BRANCH   3  16
ATOM     16  C   UNL     1     -29.716 -12.606  17.315  0.00  0.00    +0.213 C 
BRANCH  16  17
ATOM     17  C   UNL     1     -29.869 -13.309  15.978  0.00  0.00    -0.016 A 
ATOM     18  C   UNL     1     -29.061 -14.403  15.614  0.00  0.00    +0.006 A 
ATOM     19  C   UNL     1     -29.269 -15.061  14.399  0.00  0.00    +0.001 A 
ATOM     20  C   UNL     1     -30.287 -14.644  13.538  0.00  0.00    +0.012 A 
ATOM     21  C   UNL     1     -31.128 -13.577  13.895  0.00  0.00    +0.055 A 
ATOM     22  C   UNL     1     -30.905 -12.910  15.112  0.00  0.00    +0.018 A 
BRANCH  21  23
ATOM     23  C   UNL     1     -32.190 -13.096  12.934  0.00  0.00    +0.417 C 
ATOM     24  F   UNL     1     -33.392 -12.913  13.595  0.00  0.00    -0.166 F 
ATOM     25  F   UNL     1     -32.362 -14.040  11.938  0.00  0.00    -0.166 F 
ATOM     26  F   UNL     1     -31.827 -11.892  12.354  0.00  0.00    -0.166 F 
ENDBRANCH  21  23
ENDBRANCH  16  17
BRANCH  16  27
ATOM     27  C   UNL     1     -29.913 -13.508  18.506  0.00  0.00    +0.332 C 
ATOM     28  O   UNL     1     -30.975 -14.187  18.595  0.00  0.00    -0.248 OA
BRANCH  27  29
ATOM     29  O   UNL     1     -28.924 -13.613  19.490  0.00  0.00    -0.466 OA
ATOM     30  C   UNL     1     -27.705 -12.886  19.436  0.00  0.00    +0.280 C 
ENDBRANCH  27  29
ENDBRANCH  16  27
ENDBRANCH   3  16
TORSDOF 10
ENDMDL
MODEL 4
REMARK VINA RESULT:    -4.061      3.815      6.274
REMARK INTER + INTRA:          -8.830
REMARK INTER:                  -6.020
REMARK INTRA:                  -2.810
REMARK UNBOUND:                -2.395
REMARK  Name = 
REMARK  12 active torsions:
REMARK  status: ('A' for Active; 'I' for Inactive)
REMARK    1  A    between atoms: C_1  and  O_2
REMARK    2  A    between atoms: O_2  and  C_3
REMARK    3  A    between atoms: C_3  and  C_4
REMARK    4  A    between atoms: C_4  and  O_5
REMARK    5  A    between atoms: O_5  and  C_6
REMARK    6  A    between atoms: C_11  and  C_12
REMARK    7  A    between atoms: N_14  and  C_15
REMARK    8  A    between atoms: C_15  and  C_16
REMARK    9  A    between atoms: C_15  and  C_20
REMARK   10  A    between atoms: C_16  and  O_18
REMARK   11  A    between atoms: O_18  and  C_19
REMARK   12  A    between atoms: C_24  and  C_26
REMARK                            x       y       z     vdW  Elec       q    Type
REMARK                         _______ _______ _______ _____ _____    ______ ____
ROOT
ATOM      1  C   UNL     1     -29.872 -10.406  17.877  0.00  0.00    +0.248 C 
ATOM      2  O   UNL     1     -28.637 -10.210  18.034  0.00  0.00    -0.270 OA
ATOM      3  N   UNL     1     -30.341 -11.551  17.146  0.00  0.00    -0.295 N 
ATOM      4  H   UNL     1     -31.306 -11.517  16.747  0.00  0.00    +0.150 HD
ENDROOT
BRANCH   1  10
ATOM      5  C   UNL     1     -31.997  -9.071  17.694  0.00  0.00    +0.133 A 
ATOM      6  C   UNL     1     -32.868  -8.098  18.225  0.00  0.00    +0.046 A 
ATOM      7  C   UNL     1     -32.613  -7.523  19.471  0.00  0.00    +0.004 A 
ATOM      8  C   UNL     1     -31.490  -7.905  20.202  0.00  0.00    +0.001 A 
ATOM      9  C   UNL     1     -30.605  -8.852  19.682  0.00  0.00    +0.017 A 
ATOM     10  C   UNL     1     -30.838  -9.423  18.420  0.00  0.00    +0.078 A 
BRANCH   5  11
ATOM     11  O   UNL     1     -32.254  -9.718  16.473  0.00  0.00    -0.489 OA
BRANCH  11  12
ATOM     12  C   UNL     1     -33.517 -10.217  16.036  0.00  0.00    +0.257 C 
BRANCH  12  13
ATOM     13  C   UNL     1     -34.075 -11.241  17.021  0.00  0.00    +0.200 C 
BRANCH  13  15
ATOM     14  C   UNL     1     -33.111 -12.390  18.767  0.00  0.00    +0.194 C 
ATOM     15  O   UNL     1     -33.060 -12.158  17.378  0.00  0.00    -0.380 OA
ENDBRANCH  13  15
ENDBRANCH  12  13
ENDBRANCH  11  12
ENDBRANCH   5  11
ENDBRANCH   1  10
BRANCH   3  16
ATOM     16  C   UNL     1     -29.577 -12.791  16.959  0.00  0.00    +0.213 C 
BRANCH  16  17
ATOM     17  C   UNL     1     -29.862 -13.400  15.598  0.00  0.00    -0.016 A 
ATOM     18  C   UNL     1     -29.109 -14.477  15.090  0.00  0.00    +0.006 A 
ATOM     19  C   UNL     1     -29.436 -15.047  13.858  0.00  0.00    +0.001 A 
ATOM     20  C   UNL     1     -30.519 -14.560  13.121  0.00  0.00    +0.012 A 
ATOM     21  C   UNL     1     -31.305 -13.510  13.622  0.00  0.00    +0.055 A 
ATOM     22  C   UNL     1     -30.962 -12.930  14.857  0.00  0.00    +0.018 A 
BRANCH  21  23
ATOM     23  C   UNL     1     -32.438 -12.951  12.795  0.00  0.00    +0.417 C 
ATOM     24  F   UNL     1     -33.029 -13.953  12.045  0.00  0.00    -0.166 F 
ATOM     25  F   UNL     1     -31.942 -11.982  11.941  0.00  0.00    -0.166 F 
ATOM     26  F   UNL     1     -33.410 -12.383  13.601  0.00  0.00    -0.166 F 
ENDBRANCH  21  23
ENDBRANCH  16  17
BRANCH  16  27
ATOM     27  C   UNL     1     -29.771 -13.748  18.108  0.00  0.00    +0.332 C 
ATOM     28  O   UNL     1     -30.604 -14.690  17.992  0.00  0.00    -0.248 OA
BRANCH  27  29
ATOM     29  O   UNL     1     -29.020 -13.612  19.281  0.00  0.00    -0.466 OA
ATOM     30  C   UNL     1     -29.608 -13.311  20.539  0.00  0.00    +0.280 C 
ENDBRANCH  27  29
ENDBRANCH  16  27
ENDBRANCH   3  16
TORSDOF 10
ENDMDL
MODEL 5
REMARK VINA RESULT:    -4.004      1.669      2.370
REMARK INTER + INTRA:          -8.741
REMARK INTER:                  -6.702
REMARK INTRA:                  -2.039
REMARK UNBOUND:                -2.395
REMARK  Name = 
REMARK  12 active torsions:
REMARK  status: ('A' for Active; 'I' for Inactive)
REMARK    1  A    between atoms: C_1  and  O_2
REMARK    2  A    between atoms: O_2  and  C_3
REMARK    3  A    between atoms: C_3  and  C_4
REMARK    4  A    between atoms: C_4  and  O_5
REMARK    5  A    between atoms: O_5  and  C_6
REMARK    6  A    between atoms: C_11  and  C_12
REMARK    7  A    between atoms: N_14  and  C_15
REMARK    8  A    between atoms: C_15  and  C_16
REMARK    9  A    between atoms: C_15  and  C_20
REMARK   10  A    between atoms: C_16  and  O_18
REMARK   11  A    between atoms: O_18  and  C_19
REMARK   12  A    between atoms: C_24  and  C_26
REMARK                            x       y       z     vdW  Elec       q    Type
REMARK                         _______ _______ _______ _____ _____    ______ ____
ROOT
ATOM      1  C   UNL     1     -31.905 -10.695  15.401  0.00  0.00    +0.248 C 
ATOM      2  O   UNL     1     -30.920  -9.958  15.124  0.00  0.00    -0.270 OA
ATOM      3  N   UNL     1     -32.357 -10.825  16.760  0.00  0.00    -0.295 N 
ATOM      4  H   UNL     1     -32.925 -11.666  17.009  0.00  0.00    +0.150 HD
ENDROOT
BRANCH   1  10
ATOM      5  C   UNL     1     -31.919 -12.543  13.696  0.00  0.00    +0.133 A 
ATOM      6  C   UNL     1     -32.568 -13.214  12.639  0.00  0.00    +0.046 A 
ATOM      7  C   UNL     1     -33.853 -12.839  12.244  0.00  0.00    +0.004 A 
ATOM      8  C   UNL     1     -34.506 -11.792  12.891  0.00  0.00    +0.001 A 
ATOM      9  C   UNL     1     -33.871 -11.103  13.925  0.00  0.00    +0.017 A 
ATOM     10  C   UNL     1     -32.569 -11.456  14.320  0.00  0.00    +0.078 A 
BRANCH   5  11
ATOM     11  O   UNL     1     -30.652 -12.934  14.163  0.00  0.00    -0.489 OA
BRANCH  11  12
ATOM     12  C   UNL     1     -30.145 -14.267  14.202  0.00  0.00    +0.257 C 
BRANCH  12  13
ATOM     13  C   UNL     1     -29.831 -14.694  15.634  0.00  0.00    +0.200 C 
BRANCH  13  15
ATOM     14  C   UNL     1     -31.325 -14.316  17.343  0.00  0.00    +0.194 C 
ATOM     15  O   UNL     1     -30.328 -13.728  16.537  0.00  0.00    -0.380 OA
ENDBRANCH  13  15
ENDBRANCH  12  13
ENDBRANCH  11  12
ENDBRANCH   5  11
ENDBRANCH   1  10
BRANCH   3  16
ATOM     16  C   UNL     1     -32.117  -9.835  17.817  0.00  0.00    +0.213 C 
BRANCH  16  17
ATOM     17  C   UNL     1     -31.057 -10.327  18.786  0.00  0.00    -0.016 A 
ATOM     18  C   UNL     1     -31.278 -10.366  20.176  0.00  0.00    +0.006 A 
ATOM     19  C   UNL     1     -30.299 -10.878  21.032  0.00  0.00    +0.001 A 
ATOM     20  C   UNL     1     -29.096 -11.362  20.516  0.00  0.00    +0.012 A 
ATOM     21  C   UNL     1     -28.866 -11.365  19.130  0.00  0.00    +0.055 A 
ATOM     22  C   UNL     1     -29.849 -10.836  18.275  0.00  0.00    +0.018 A 
BRANCH  21  23
ATOM     23  C   UNL     1     -27.540 -11.837  18.583  0.00  0.00    +0.417 C 
ATOM     24  F   UNL     1     -27.734 -12.817  17.624  0.00  0.00    -0.166 F 
ATOM     25  F   UNL     1     -26.783 -12.361  19.616  0.00  0.00    -0.166 F 
ATOM     26  F   UNL     1     -26.842 -10.794  17.999  0.00  0.00    -0.166 F 
ENDBRANCH  21  23
ENDBRANCH  16  17
BRANCH  16  27
ATOM     27  C   UNL     1     -33.399  -9.404  18.483  0.00  0.00    +0.332 C 
ATOM     28  O   UNL     1     -34.319 -10.251  18.656  0.00  0.00    -0.248 OA
BRANCH  27  29
ATOM     29  O   UNL     1     -33.562  -8.086  18.926  0.00  0.00    -0.466 OA
ATOM     30  C   UNL     1     -34.220  -7.760  20.143  0.00  0.00    +0.280 C 
ENDBRANCH  27  29
ENDBRANCH  16  27
ENDBRANCH   3  16
TORSDOF 10
ENDMDL
MODEL 6
REMARK VINA RESULT:    -3.971      3.427      5.509
REMARK INTER + INTRA:          -8.688
REMARK INTER:                  -6.789
REMARK INTRA:                  -1.898
REMARK UNBOUND:                -2.395
REMARK  Name = 
REMARK  12 active torsions:
REMARK  status: ('A' for Active; 'I' for Inactive)
REMARK    1  A    between atoms: C_1  and  O_2
REMARK    2  A    between atoms: O_2  and  C_3
REMARK    3  A    between atoms: C_3  and  C_4
REMARK    4  A    between atoms: C_4  and  O_5
REMARK    5  A    between atoms: O_5  and  C_6
REMARK    6  A    between atoms: C_11  and  C_12
REMARK    7  A    between atoms: N_14  and  C_15
REMARK    8  A    between atoms: C_15  and  C_16
REMARK    9  A    between atoms: C_15  and  C_20
REMARK   10  A    between atoms: C_16  and  O_18
REMARK   11  A    between atoms: O_18  and  C_19
REMARK   12  A    between atoms: C_24  and  C_26
REMARK                            x       y       z     vdW  Elec       q    Type
REMARK                         _______ _______ _______ _____ _____    ______ ____
ROOT
ATOM      1  C   UNL     1     -29.027 -13.547  17.689  0.00  0.00    +0.248 C 
ATOM      2  O   UNL     1     -27.936 -12.940  17.860  0.00  0.00    -0.270 OA
ATOM      3  N   UNL     1     -29.801 -13.986  18.819  0.00  0.00    -0.295 N 
ATOM      4  H   UNL     1     -30.493 -14.754  18.671  0.00  0.00    +0.150 HD
ENDROOT
BRANCH   1  10
ATOM      5  C   UNL     1     -30.773 -13.444  15.881  0.00  0.00    +0.133 A 
ATOM      6  C   UNL     1     -31.192 -13.781  14.578  0.00  0.00    +0.046 A 
ATOM      7  C   UNL     1     -30.333 -14.457  13.710  0.00  0.00    +0.004 A 
ATOM      8  C   UNL     1     -29.051 -14.809  14.128  0.00  0.00    +0.001 A 
ATOM      9  C   UNL     1     -28.627 -14.501  15.422  0.00  0.00    +0.017 A 
ATOM     10  C   UNL     1     -29.489 -13.840  16.313  0.00  0.00    +0.078 A 
BRANCH   5  11
ATOM     11  O   UNL     1     -31.587 -12.708  16.761  0.00  0.00    -0.489 OA
BRANCH  11  12
ATOM     12  C   UNL     1     -32.285 -11.502  16.450  0.00  0.00    +0.257 C 
BRANCH  12  13
ATOM     13  C   UNL     1     -31.312 -10.349  16.213  0.00  0.00    +0.200 C 
BRANCH  13  15
ATOM     14  C   UNL     1     -33.298  -9.259  16.619  0.00  0.00    +0.194 C 
ATOM     15  O   UNL     1     -31.894  -9.140  16.656  0.00  0.00    -0.380 OA
ENDBRANCH  13  15
ENDBRANCH  12  13
ENDBRANCH  11  12
ENDBRANCH   5  11
ENDBRANCH   1  10
BRANCH   3  16
ATOM     16  C   UNL     1     -29.721 -13.400  20.163  0.00  0.00    +0.213 C 
BRANCH  16  17
ATOM     17  C   UNL     1     -30.271 -11.985  20.168  0.00  0.00    -0.016 A 
ATOM     18  C   UNL     1     -29.497 -10.883  19.757  0.00  0.00    +0.006 A 
ATOM     19  C   UNL     1     -30.055  -9.603  19.722  0.00  0.00    +0.001 A 
ATOM     20  C   UNL     1     -31.389  -9.405  20.085  0.00  0.00    +0.012 A 
ATOM     21  C   UNL     1     -32.191 -10.494  20.465  0.00  0.00    +0.055 A 
ATOM     22  C   UNL     1     -31.620 -11.778  20.513  0.00  0.00    +0.018 A 
BRANCH  21  23
ATOM     23  C   UNL     1     -33.616 -10.266  20.911  0.00  0.00    +0.417 C 
ATOM     24  F   UNL     1     -34.451 -10.135  19.815  0.00  0.00    -0.166 F 
ATOM     25  F   UNL     1     -33.676  -9.107  21.665  0.00  0.00    -0.166 F 
ATOM     26  F   UNL     1     -34.073 -11.325  21.678  0.00  0.00    -0.166 F 
ENDBRANCH  21  23
ENDBRANCH  16  17
BRANCH  16  27
ATOM     27  C   UNL     1     -28.336 -13.518  20.746  0.00  0.00    +0.332 C 
ATOM     28  O   UNL     1     -27.948 -12.665  21.592  0.00  0.00    -0.248 OA
BRANCH  27  29
ATOM     29  O   UNL     1     -27.495 -14.574  20.373  0.00  0.00    -0.466 OA
ATOM     30  C   UNL     1     -26.122 -14.627  20.734  0.00  0.00    +0.280 C 
ENDBRANCH  27  29
ENDBRANCH  16  27
ENDBRANCH   3  16
TORSDOF 10
ENDMDL
MODEL 7
REMARK VINA RESULT:    -3.916      3.136      5.067
REMARK INTER + INTRA:          -8.600
REMARK INTER:                  -6.500
REMARK INTRA:                  -2.100
REMARK UNBOUND:                -2.395
REMARK  Name = 
REMARK  12 active torsions:
REMARK  status: ('A' for Active; 'I' for Inactive)
REMARK    1  A    between atoms: C_1  and  O_2
REMARK    2  A    between atoms: O_2  and  C_3
REMARK    3  A    between atoms: C_3  and  C_4
REMARK    4  A    between atoms: C_4  and  O_5
REMARK    5  A    between atoms: O_5  and  C_6
REMARK    6  A    between atoms: C_11  and  C_12
REMARK    7  A    between atoms: N_14  and  C_15
REMARK    8  A    between atoms: C_15  and  C_16
REMARK    9  A    between atoms: C_15  and  C_20
REMARK   10  A    between atoms: C_16  and  O_18
REMARK   11  A    between atoms: O_18  and  C_19
REMARK   12  A    between atoms: C_24  and  C_26
REMARK                            x       y       z     vdW  Elec       q    Type
REMARK                         _______ _______ _______ _____ _____    ______ ____
ROOT
ATOM      1  C   UNL     1     -30.146 -13.811  16.846  0.00  0.00    +0.248 C 
ATOM      2  O   UNL     1     -30.254 -14.812  17.605  0.00  0.00    -0.270 OA
ATOM      3  N   UNL     1     -30.028 -12.488  17.397  0.00  0.00    -0.295 N 
ATOM      4  H   UNL     1     -30.276 -11.679  16.786  0.00  0.00    +0.150 HD
ENDROOT
BRANCH   1  10
ATOM      5  C   UNL     1     -31.139 -13.339  14.584  0.00  0.00    +0.133 A 
ATOM      6  C   UNL     1     -31.167 -13.586  13.196  0.00  0.00    +0.046 A 
ATOM      7  C   UNL     1     -30.233 -14.441  12.608  0.00  0.00    +0.004 A 
ATOM      8  C   UNL     1     -29.264 -15.062  13.392  0.00  0.00    +0.001 A 
ATOM      9  C   UNL     1     -29.234 -14.847  14.771  0.00  0.00    +0.017 A 
ATOM     10  C   UNL     1     -30.180 -14.005  15.379  0.00  0.00    +0.078 A 
BRANCH   5  11
ATOM     11  O   UNL     1     -32.022 -12.436  15.201  0.00  0.00    -0.489 OA
BRANCH  11  12
ATOM     12  C   UNL     1     -32.184 -11.058  14.867  0.00  0.00    +0.257 C 
BRANCH  12  13
ATOM     13  C   UNL     1     -31.246 -10.179  15.689  0.00  0.00    +0.200 C 
BRANCH  13  15
ATOM     14  C   UNL     1     -33.240  -9.760  16.759  0.00  0.00    +0.194 C 
ATOM     15  O   UNL     1     -31.997  -9.208  16.389  0.00  0.00    -0.380 OA
ENDBRANCH  13  15
ENDBRANCH  12  13
ENDBRANCH  11  12
ENDBRANCH   5  11
ENDBRANCH   1  10
BRANCH   3  16
ATOM     16  C   UNL     1     -29.537 -12.189  18.749  0.00  0.00    +0.213 C 
BRANCH  16  17
ATOM     17  C   UNL     1     -30.579 -11.424  19.544  0.00  0.00    -0.016 A 
ATOM     18  C   UNL     1     -31.543 -12.079  20.334  0.00  0.00    +0.006 A 
ATOM     19  C   UNL     1     -32.450 -11.340  21.097  0.00  0.00    +0.001 A 
ATOM     20  C   UNL     1     -32.404  -9.944  21.089  0.00  0.00    +0.012 A 
ATOM     21  C   UNL     1     -31.430  -9.268  20.336  0.00  0.00    +0.055 A 
ATOM     22  C   UNL     1     -30.528 -10.017  19.559  0.00  0.00    +0.018 A 
BRANCH  21  23
ATOM     23  C   UNL     1     -31.422  -7.759  20.287  0.00  0.00    +0.417 C 
ATOM     24  F   UNL     1     -32.278  -7.240  21.243  0.00  0.00    -0.166 F 
ATOM     25  F   UNL     1     -31.840  -7.343  19.035  0.00  0.00    -0.166 F 
ATOM     26  F   UNL     1     -30.153  -7.260  20.526  0.00  0.00    -0.166 F 
ENDBRANCH  21  23
ENDBRANCH  16  17
BRANCH  16  27
ATOM     27  C   UNL     1     -28.183 -11.526  18.719  0.00  0.00    +0.332 C 
ATOM     28  O   UNL     1     -27.966 -10.605  17.883  0.00  0.00    -0.248 OA
BRANCH  27  29
ATOM     29  O   UNL     1     -27.184 -11.908  19.623  0.00  0.00    -0.466 OA
ATOM     30  C   UNL     1     -27.053 -13.237  20.106  0.00  0.00    +0.280 C 
ENDBRANCH  27  29
ENDBRANCH  16  27
ENDBRANCH   3  16
TORSDOF 10
ENDMDL
MODEL 8
REMARK VINA RESULT:    -3.790      3.621      6.678
REMARK INTER + INTRA:          -8.401
REMARK INTER:                  -6.181
REMARK INTRA:                  -2.220
REMARK UNBOUND:                -2.395
REMARK  Name = 
REMARK  12 active torsions:
REMARK  status: ('A' for Active; 'I' for Inactive)
REMARK    1  A    between atoms: C_1  and  O_2
REMARK    2  A    between atoms: O_2  and  C_3
REMARK    3  A    between atoms: C_3  and  C_4
REMARK    4  A    between atoms: C_4  and  O_5
REMARK    5  A    between atoms: O_5  and  C_6
REMARK    6  A    between atoms: C_11  and  C_12
REMARK    7  A    between atoms: N_14  and  C_15
REMARK    8  A    between atoms: C_15  and  C_16
REMARK    9  A    between atoms: C_15  and  C_20
REMARK   10  A    between atoms: C_16  and  O_18
REMARK   11  A    between atoms: O_18  and  C_19
REMARK   12  A    between atoms: C_24  and  C_26
REMARK                            x       y       z     vdW  Elec       q    Type
REMARK                         _______ _______ _______ _____ _____    ______ ____
ROOT
ATOM      1  C   UNL     1     -32.162 -12.155  18.938  0.00  0.00    +0.248 C 
ATOM      2  O   UNL     1     -33.079 -12.463  19.745  0.00  0.00    -0.270 OA
ATOM      3  N   UNL     1     -32.480 -11.588  17.656  0.00  0.00    -0.295 N 
ATOM      4  H   UNL     1     -31.765 -11.657  16.898  0.00  0.00    +0.150 HD
ENDROOT
BRANCH   1  10
ATOM      5  C   UNL     1     -29.829 -12.887  18.346  0.00  0.00    +0.133 A 
ATOM      6  C   UNL     1     -28.508 -13.168  18.747  0.00  0.00    +0.046 A 
ATOM      7  C   UNL     1     -28.103 -12.944  20.064  0.00  0.00    +0.004 A 
ATOM      8  C   UNL     1     -29.007 -12.442  20.997  0.00  0.00    +0.001 A 
ATOM      9  C   UNL     1     -30.326 -12.178  20.623  0.00  0.00    +0.017 A 
ATOM     10  C   UNL     1     -30.752 -12.418  19.306  0.00  0.00    +0.078 A 
BRANCH   5  11
ATOM     11  O   UNL     1     -30.255 -13.039  17.014  0.00  0.00    -0.489 OA
BRANCH  11  12
ATOM     12  C   UNL     1     -30.509 -14.276  16.350  0.00  0.00    +0.257 C 
BRANCH  12  13
ATOM     13  C   UNL     1     -29.377 -14.625  15.386  0.00  0.00    +0.200 C 
BRANCH  13  15
ATOM     14  C   UNL     1     -28.864 -14.459  13.149  0.00  0.00    +0.194 C 
ATOM     15  O   UNL     1     -29.453 -13.796  14.245  0.00  0.00    -0.380 OA
ENDBRANCH  13  15
ENDBRANCH  12  13
ENDBRANCH  11  12
ENDBRANCH   5  11
ENDBRANCH   1  10
BRANCH   3  16
ATOM     16  C   UNL     1     -33.726 -10.875  17.345  0.00  0.00    +0.213 C 
BRANCH  16  17
ATOM     17  C   UNL     1     -34.006 -10.902  15.853  0.00  0.00    -0.016 A 
ATOM     18  C   UNL     1     -34.871  -9.976  15.240  0.00  0.00    +0.006 A 
ATOM     19  C   UNL     1     -35.061  -9.998  13.856  0.00  0.00    +0.001 A 
ATOM     20  C   UNL     1     -34.387 -10.933  13.067  0.00  0.00    +0.012 A 
ATOM     21  C   UNL     1     -33.493 -11.845  13.652  0.00  0.00    +0.055 A 
ATOM     22  C   UNL     1     -33.317 -11.828  15.047  0.00  0.00    +0.018 A 
BRANCH  21  23
ATOM     23  C   UNL     1     -32.812 -12.890  12.801  0.00  0.00    +0.417 C 
ATOM     24  F   UNL     1     -33.721 -13.479  11.939  0.00  0.00    -0.166 F 
ATOM     25  F   UNL     1     -32.274 -13.865  13.623  0.00  0.00    -0.166 F 
ATOM     26  F   UNL     1     -31.797 -12.331  12.043  0.00  0.00    -0.166 F 
ENDBRANCH  21  23
ENDBRANCH  16  17
BRANCH  16  27
ATOM     27  C   UNL     1     -33.744  -9.491  17.944  0.00  0.00    +0.332 C 
ATOM     28  O   UNL     1     -34.789  -9.085  18.524  0.00  0.00    -0.248 OA
BRANCH  27  29
ATOM     29  O   UNL     1     -32.609  -8.673  17.880  0.00  0.00    -0.466 OA
ATOM     30  C   UNL     1     -31.866  -8.299  19.031  0.00  0.00    +0.280 C 
ENDBRANCH  27  29
ENDBRANCH  16  27
ENDBRANCH   3  16
TORSDOF 10
ENDMDL
