MODEL 1
REMARK VINA RESULT:    -3.633      0.000      0.000
REMARK INTER + INTRA:          -5.078
REMARK INTER:                  -4.483
REMARK INTRA:                  -0.595
REMARK UNBOUND:                -0.595
REMARK  Name = 
REMARK  6 active torsions:
REMARK  status: ('A' for Active; 'I' for Inactive)
REMARK    1  A    between atoms: C_1  and  C_2
REMARK    2  A    between atoms: C_2  and  C_3
REMARK    3  A    between atoms: C_3  and  C_4
REMARK    4  A    between atoms: C_3  and  N_6
REMARK    5  A    between atoms: C_4  and  C_5
REMARK    6  A    between atoms: C_10  and  N_14
REMARK                            x       y       z     vdW  Elec       q    Type
REMARK                         _______ _______ _______ _____ _____    ______ ____
ROOT
ATOM      1  N   UNL     1     -31.221 -13.169  19.823  0.00  0.00    -0.311 N 
ATOM      2  C   UNL     1     -29.792 -13.166  19.942  0.00  0.00    +0.217 A 
ATOM      3  N   UNL     1     -29.026 -12.442  19.085  0.00  0.00    -0.221 NA
ATOM      4  C   UNL     1     -27.674 -12.432  19.189  0.00  0.00    +0.150 A 
ATOM      5  C   UNL     1     -27.037 -13.165  20.199  0.00  0.00    +0.184 A 
ATOM      6  C   UNL     1     -27.846 -13.933  21.064  0.00  0.00    +0.152 A 
ATOM      7  N   UNL     1     -27.285 -14.792  22.062  0.00  0.00    -0.341 N 
ATOM      8  N   UNL     1     -29.198 -13.905  20.914  0.00  0.00    -0.198 NA
ATOM      9  H   UNL     1     -31.768 -13.725  20.518  0.00  0.00    +0.149 HD
ATOM     10  H   UNL     1     -27.914 -15.285  22.733  0.00  0.00    +0.144 HD
ATOM     11  H   UNL     1     -26.273 -15.044  22.073  0.00  0.00    +0.144 HD
ENDROOT
BRANCH   5  12
ATOM     12  N   UNL     1     -25.609 -13.091  20.340  0.00  0.00    +0.061 N 
ATOM     13  O   UNL     1     -24.950 -14.000  21.137  0.00  0.00    -0.126 OA
ATOM     14  O   UNL     1     -24.938 -12.356  19.586  0.00  0.00    -0.126 OA
ENDBRANCH   5  12
BRANCH   1  15
ATOM     15  C   UNL     1     -31.926 -12.398  18.791  0.00  0.00    +0.073 C 
BRANCH  15  17
ATOM     16  C   UNL     1     -31.478 -13.316  16.444  0.00  0.00    +0.006 C 
ATOM     17  C   UNL     1     -32.403 -13.351  17.661  0.00  0.00    +0.019 C 
ENDBRANCH  15  17
BRANCH  15  18
ATOM     18  C   UNL     1     -33.100 -11.628  19.440  0.00  0.00    +0.019 C 
ATOM     19  C   UNL     1     -32.675 -10.788  20.644  0.00  0.00    +0.006 C 
ENDBRANCH  15  18
ENDBRANCH   1  15
TORSDOF 4
ENDMDL
MODEL 2
REMARK VINA RESULT:    -3.608      1.911      2.160
REMARK INTER + INTRA:          -5.046
REMARK INTER:                  -4.493
REMARK INTRA:                  -0.553
REMARK UNBOUND:                -0.595
REMARK  Name = 
REMARK  6 active torsions:
REMARK  status: ('A' for Active; 'I' for Inactive)
REMARK    1  A    between atoms: C_1  and  C_2
REMARK    2  A    between atoms: C_2  and  C_3
REMARK    3  A    between atoms: C_3  and  C_4
REMARK    4  A    between atoms: C_3  and  N_6
REMARK    5  A    between atoms: C_4  and  C_5
REMARK    6  A    between atoms: C_10  and  N_14
REMARK                            x       y       z     vdW  Elec       q    Type
REMARK                         _______ _______ _______ _____ _____    ______ ____
ROOT
ATOM      1  N   UNL     1     -30.728 -11.747  17.830  0.00  0.00    -0.311 N 
ATOM      2  C   UNL     1     -29.527 -12.138  18.507  0.00  0.00    +0.217 A 
ATOM      3  N   UNL     1     -28.320 -11.655  18.113  0.00  0.00    -0.221 NA
ATOM      4  C   UNL     1     -27.177 -12.018  18.746  0.00  0.00    +0.150 A 
ATOM      5  C   UNL     1     -27.221 -12.897  19.837  0.00  0.00    +0.184 A 
ATOM      6  C   UNL     1     -28.480 -13.411  20.216  0.00  0.00    +0.152 A 
ATOM      7  N   UNL     1     -28.618 -14.390  21.251  0.00  0.00    -0.341 N 
ATOM      8  N   UNL     1     -29.594 -13.011  19.546  0.00  0.00    -0.198 NA
ATOM      9  H   UNL     1     -31.635 -12.129  18.184  0.00  0.00    +0.149 HD
ATOM     10  H   UNL     1     -29.570 -14.689  21.556  0.00  0.00    +0.144 HD
ATOM     11  H   UNL     1     -27.801 -14.912  21.635  0.00  0.00    +0.144 HD
ENDROOT
BRANCH   5  12
ATOM     12  N   UNL     1     -26.011 -13.221  20.540  0.00  0.00    +0.061 N 
ATOM     13  O   UNL     1     -26.068 -13.611  21.858  0.00  0.00    -0.126 OA
ATOM     14  O   UNL     1     -24.938 -13.360  19.917  0.00  0.00    -0.126 OA
ENDBRANCH   5  12
BRANCH   1  15
ATOM     15  C   UNL     1     -30.726 -10.812  16.698  0.00  0.00    +0.073 C 
BRANCH  15  17
ATOM     16  C   UNL     1     -30.880 -12.931  15.269  0.00  0.00    +0.006 C 
ATOM     17  C   UNL     1     -31.365 -11.494  15.457  0.00  0.00    +0.019 C 
ENDBRANCH  15  17
BRANCH  15  18
ATOM     18  C   UNL     1     -31.467  -9.516  17.101  0.00  0.00    +0.019 C 
ATOM     19  C   UNL     1     -32.817  -9.355  16.405  0.00  0.00    +0.006 C 
ENDBRANCH  15  18
ENDBRANCH   1  15
TORSDOF 4
ENDMDL
MODEL 3
REMARK VINA RESULT:    -3.552      3.271      4.803
REMARK INTER + INTRA:          -4.977
REMARK INTER:                  -4.333
REMARK INTRA:                  -0.644
REMARK UNBOUND:                -0.595
REMARK  Name = 
REMARK  6 active torsions:
REMARK  status: ('A' for Active; 'I' for Inactive)
REMARK    1  A    between atoms: C_1  and  C_2
REMARK    2  A    between atoms: C_2  and  C_3
REMARK    3  A    between atoms: C_3  and  C_4
REMARK    4  A    between atoms: C_3  and  N_6
REMARK    5  A    between atoms: C_4  and  C_5
REMARK    6  A    between atoms: C_10  and  N_14
REMARK                            x       y       z     vdW  Elec       q    Type
REMARK                         _______ _______ _______ _____ _____    ______ ____
ROOT
ATOM      1  N   UNL     1     -30.954 -14.156  15.395  0.00  0.00    -0.311 N 
ATOM      2  C   UNL     1     -30.622 -13.411  16.573  0.00  0.00    +0.217 A 
ATOM      3  N   UNL     1     -30.077 -12.170  16.478  0.00  0.00    -0.221 NA
ATOM      4  C   UNL     1     -29.759 -11.456  17.587  0.00  0.00    +0.150 A 
ATOM      5  C   UNL     1     -30.000 -11.985  18.863  0.00  0.00    +0.184 A 
ATOM      6  C   UNL     1     -30.542 -13.286  18.943  0.00  0.00    +0.152 A 
ATOM      7  N   UNL     1     -30.732 -13.951  20.196  0.00  0.00    -0.341 N 
ATOM      8  N   UNL     1     -30.843 -13.955  17.798  0.00  0.00    -0.198 NA
ATOM      9  H   UNL     1     -31.391 -15.098  15.519  0.00  0.00    +0.149 HD
ATOM     10  H   UNL     1     -31.206 -14.881  20.221  0.00  0.00    +0.144 HD
ATOM     11  H   UNL     1     -30.307 -13.600  21.081  0.00  0.00    +0.144 HD
ENDROOT
BRANCH   5  12
ATOM     12  N   UNL     1     -29.721 -11.191  20.027  0.00  0.00    +0.061 N 
ATOM     13  O   UNL     1     -29.254 -11.794  21.172  0.00  0.00    -0.126 OA
ATOM     14  O   UNL     1     -29.691  -9.945  19.948  0.00  0.00    -0.126 OA
ENDBRANCH   5  12
BRANCH   1  15
ATOM     15  C   UNL     1     -30.736 -13.628  14.042  0.00  0.00    +0.073 C 
BRANCH  15  17
ATOM     16  C   UNL     1     -28.571 -14.631  13.114  0.00  0.00    +0.006 C 
ATOM     17  C   UNL     1     -30.096 -14.727  13.150  0.00  0.00    +0.019 C 
ENDBRANCH  15  17
BRANCH  15  18
ATOM     18  C   UNL     1     -32.078 -13.117  13.468  0.00  0.00    +0.019 C 
ATOM     19  C   UNL     1     -32.270 -13.461  11.992  0.00  0.00    +0.006 C 
ENDBRANCH  15  18
ENDBRANCH   1  15
TORSDOF 4
ENDMDL
MODEL 4
REMARK VINA RESULT:    -3.550      3.145      4.797
REMARK INTER + INTRA:          -4.976
REMARK INTER:                  -4.479
REMARK INTRA:                  -0.496
REMARK UNBOUND:                -0.595
REMARK  Name = 
REMARK  6 active torsions:
REMARK  status: ('A' for Active; 'I' for Inactive)
REMARK    1  A    between atoms: C_1  and  C_2
REMARK    2  A    between atoms: C_2  and  C_3
REMARK    3  A    between atoms: C_3  and  C_4
REMARK    4  A    between atoms: C_3  and  N_6
REMARK    5  A    between atoms: C_4  and  C_5
REMARK    6  A    between atoms: C_10  and  N_14
REMARK                            x       y       z     vdW  Elec       q    Type
REMARK                         _______ _______ _______ _____ _____    ______ ____
ROOT
ATOM      1  N   UNL     1     -29.063 -13.963  15.399  0.00  0.00    -0.311 N 
ATOM      2  C   UNL     1     -29.241 -13.681  16.793  0.00  0.00    +0.217 A 
ATOM      3  N   UNL     1     -30.455 -13.836  17.382  0.00  0.00    -0.221 NA
ATOM      4  C   UNL     1     -30.635 -13.572  18.701  0.00  0.00    +0.150 A 
ATOM      5  C   UNL     1     -29.559 -13.143  19.490  0.00  0.00    +0.184 A 
ATOM      6  C   UNL     1     -28.311 -12.960  18.855  0.00  0.00    +0.152 A 
ATOM      7  N   UNL     1     -27.178 -12.431  19.551  0.00  0.00    -0.341 N 
ATOM      8  N   UNL     1     -28.188 -13.242  17.530  0.00  0.00    -0.198 NA
ATOM      9  H   UNL     1     -28.105 -13.849  14.996  0.00  0.00    +0.149 HD
ATOM     10  H   UNL     1     -26.252 -12.383  19.072  0.00  0.00    +0.144 HD
ATOM     11  H   UNL     1     -27.263 -11.976  20.485  0.00  0.00    +0.144 HD
ENDROOT
BRANCH   5  12
ATOM     12  N   UNL     1     -29.748 -12.931  20.898  0.00  0.00    +0.061 N 
ATOM     13  O   UNL     1     -28.726 -13.208  21.776  0.00  0.00    -0.126 OA
ATOM     14  O   UNL     1     -30.744 -12.302  21.313  0.00  0.00    -0.126 OA
ENDBRANCH   5  12
BRANCH   1  15
ATOM     15  C   UNL     1     -30.160 -14.435  14.545  0.00  0.00    +0.073 C 
BRANCH  15  17
ATOM     16  C   UNL     1     -31.685 -13.291  12.837  0.00  0.00    +0.006 C 
ATOM     17  C   UNL     1     -31.144 -13.266  14.266  0.00  0.00    +0.019 C 
ENDBRANCH  15  17
BRANCH  15  18
ATOM     18  C   UNL     1     -29.576 -15.031  13.243  0.00  0.00    +0.019 C 
ATOM     19  C   UNL     1     -28.048 -15.062  13.229  0.00  0.00    +0.006 C 
ENDBRANCH  15  18
ENDBRANCH   1  15
TORSDOF 4
ENDMDL
MODEL 5
REMARK VINA RESULT:    -3.513      4.814      6.523
REMARK INTER + INTRA:          -4.930
REMARK INTER:                  -4.559
REMARK INTRA:                  -0.371
REMARK UNBOUND:                -0.595
REMARK  Name = 
REMARK  6 active torsions:
REMARK  status: ('A' for Active; 'I' for Inactive)
REMARK    1  A    between atoms: C_1  and  C_2
REMARK    2  A    between atoms: C_2  and  C_3
REMARK    3  A    between atoms: C_3  and  C_4
REMARK    4  A    between atoms: C_3  and  N_6
REMARK    5  A    between atoms: C_4  and  C_5
REMARK    6  A    between atoms: C_10  and  N_14
REMARK                            x       y       z     vdW  Elec       q    Type
REMARK                         _______ _______ _______ _____ _____    ______ ____
ROOT
ATOM      1  N   UNL     1     -31.789 -12.078  14.229  0.00  0.00    -0.311 N 
ATOM      2  C   UNL     1     -31.551 -11.259  15.381  0.00  0.00    +0.217 A 
ATOM      3  N   UNL     1     -30.481 -11.490  16.187  0.00  0.00    -0.221 NA
ATOM      4  C   UNL     1     -30.247 -10.721  17.279  0.00  0.00    +0.150 A 
ATOM      5  C   UNL     1     -31.104  -9.658  17.594  0.00  0.00    +0.184 A 
ATOM      6  C   UNL     1     -32.226  -9.449  16.762  0.00  0.00    +0.152 A 
ATOM      7  N   UNL     1     -33.212  -8.455  17.055  0.00  0.00    -0.341 N 
ATOM      8  N   UNL     1     -32.410 -10.250  15.678  0.00  0.00    -0.198 NA
ATOM      9  H   UNL     1     -32.613 -11.848  13.627  0.00  0.00    +0.149 HD
ATOM     10  H   UNL     1     -33.985  -8.277  16.377  0.00  0.00    +0.144 HD
ATOM     11  H   UNL     1     -33.261  -7.977  17.980  0.00  0.00    +0.144 HD
ENDROOT
BRANCH   5  12
ATOM     12  N   UNL     1     -30.806  -8.811  18.715  0.00  0.00    +0.061 N 
ATOM     13  O   UNL     1     -31.757  -7.931  19.182  0.00  0.00    -0.126 OA
ATOM     14  O   UNL     1     -29.783  -9.011  19.403  0.00  0.00    -0.126 OA
ENDBRANCH   5  12
BRANCH   1  15
ATOM     15  C   UNL     1     -30.902 -13.187  13.855  0.00  0.00    +0.073 C 
BRANCH  15  17
ATOM     16  C   UNL     1     -29.614 -14.910  15.242  0.00  0.00    +0.006 C 
ATOM     17  C   UNL     1     -30.983 -14.305  14.930  0.00  0.00    +0.019 C 
ENDBRANCH  15  17
BRANCH  15  18
ATOM     18  C   UNL     1     -31.289 -13.700  12.448  0.00  0.00    +0.019 C 
ATOM     19  C   UNL     1     -32.651 -13.194  11.977  0.00  0.00    +0.006 C 
ENDBRANCH  15  18
ENDBRANCH   1  15
TORSDOF 4
ENDMDL
MODEL 6
REMARK VINA RESULT:    -3.468      3.541      4.594
REMARK INTER + INTRA:          -4.873
REMARK INTER:                  -4.220
REMARK INTRA:                  -0.654
REMARK UNBOUND:                -0.595
REMARK  Name = 
REMARK  6 active torsions:
REMARK  status: ('A' for Active; 'I' for Inactive)
REMARK    1  A    between atoms: C_1  and  C_2
REMARK    2  A    between atoms: C_2  and  C_3
REMARK    3  A    between atoms: C_3  and  C_4
REMARK    4  A    between atoms: C_3  and  N_6
REMARK    5  A    between atoms: C_4  and  C_5
REMARK    6  A    between atoms: C_10  and  N_14
REMARK                            x       y       z     vdW  Elec       q    Type
REMARK                         _______ _______ _______ _____ _____    ______ ____
ROOT
ATOM      1  N   UNL     1     -33.097 -12.616  14.974  0.00  0.00    -0.311 N 
ATOM      2  C   UNL     1     -31.947 -12.534  15.826  0.00  0.00    +0.217 A 
ATOM      3  N   UNL     1     -31.254 -11.372  15.946  0.00  0.00    -0.221 NA
ATOM      4  C   UNL     1     -30.165 -11.283  16.750  0.00  0.00    +0.150 A 
ATOM      5  C   UNL     1     -29.738 -12.395  17.489  0.00  0.00    +0.184 A 
ATOM      6  C   UNL     1     -30.454 -13.602  17.332  0.00  0.00    +0.152 A 
ATOM      7  N   UNL     1     -30.039 -14.817  17.964  0.00  0.00    -0.341 N 
ATOM      8  N   UNL     1     -31.540 -13.633  16.513  0.00  0.00    -0.198 NA
ATOM      9  H   UNL     1     -33.610 -13.526  14.931  0.00  0.00    +0.149 HD
ATOM     10  H   UNL     1     -30.635 -15.670  17.888  0.00  0.00    +0.144 HD
ATOM     11  H   UNL     1     -29.099 -14.921  18.402  0.00  0.00    +0.144 HD
ENDROOT
BRANCH   5  12
ATOM     12  N   UNL     1     -28.625 -12.269  18.387  0.00  0.00    +0.061 N 
ATOM     13  O   UNL     1     -27.693 -13.278  18.470  0.00  0.00    -0.126 OA
ATOM     14  O   UNL     1     -28.374 -11.173  18.931  0.00  0.00    -0.126 OA
ENDBRANCH   5  12
BRANCH   1  15
ATOM     15  C   UNL     1     -33.587 -11.467  14.201  0.00  0.00    +0.073 C 
BRANCH  15  17
ATOM     16  C   UNL     1     -33.361 -12.973  12.143  0.00  0.00    +0.006 C 
ATOM     17  C   UNL     1     -34.241 -11.966  12.883  0.00  0.00    +0.019 C 
ENDBRANCH  15  17
BRANCH  15  18
ATOM     18  C   UNL     1     -34.570 -10.647  15.068  0.00  0.00    +0.019 C 
ATOM     19  C   UNL     1     -34.145  -9.190  15.243  0.00  0.00    +0.006 C 
ENDBRANCH  15  18
ENDBRANCH   1  15
TORSDOF 4
ENDMDL
MODEL 7
REMARK VINA RESULT:    -3.440      3.770      4.990
REMARK INTER + INTRA:          -4.839
REMARK INTER:                  -4.296
REMARK INTRA:                  -0.543
REMARK UNBOUND:                -0.595
REMARK  Name = 
REMARK  6 active torsions:
REMARK  status: ('A' for Active; 'I' for Inactive)
REMARK    1  A    between atoms: C_1  and  C_2
REMARK    2  A    between atoms: C_2  and  C_3
REMARK    3  A    between atoms: C_3  and  C_4
REMARK    4  A    between atoms: C_3  and  N_6
REMARK    5  A    between atoms: C_4  and  C_5
REMARK    6  A    between atoms: C_10  and  N_14
REMARK                            x       y       z     vdW  Elec       q    Type
REMARK                         _______ _______ _______ _____ _____    ______ ____
ROOT
ATOM      1  N   UNL     1     -32.215 -12.587  14.466  0.00  0.00    -0.311 N 
ATOM      2  C   UNL     1     -31.368 -12.071  15.501  0.00  0.00    +0.217 A 
ATOM      3  N   UNL     1     -31.318 -10.737  15.756  0.00  0.00    -0.221 NA
ATOM      4  C   UNL     1     -30.520 -10.239  16.733  0.00  0.00    +0.150 A 
ATOM      5  C   UNL     1     -29.735 -11.098  17.514  0.00  0.00    +0.184 A 
ATOM      6  C   UNL     1     -29.779 -12.478  17.218  0.00  0.00    +0.152 A 
ATOM      7  N   UNL     1     -28.942 -13.424  17.890  0.00  0.00    -0.341 N 
ATOM      8  N   UNL     1     -30.599 -12.923  16.227  0.00  0.00    -0.198 NA
ATOM      9  H   UNL     1     -32.235 -13.622  14.322  0.00  0.00    +0.149 HD
ATOM     10  H   UNL     1     -29.057 -14.444  17.700  0.00  0.00    +0.144 HD
ATOM     11  H   UNL     1     -28.133 -13.130  18.478  0.00  0.00    +0.144 HD
ENDROOT
BRANCH   5  12
ATOM     12  N   UNL     1     -28.947 -10.563  18.589  0.00  0.00    +0.061 N 
ATOM     13  O   UNL     1     -27.710 -11.099  18.864  0.00  0.00    -0.126 OA
ATOM     14  O   UNL     1     -29.272  -9.489  19.135  0.00  0.00    -0.126 OA
ENDBRANCH   5  12
BRANCH   1  15
ATOM     15  C   UNL     1     -33.067 -11.721  13.641  0.00  0.00    +0.073 C 
BRANCH  15  17
ATOM     16  C   UNL     1     -32.466 -13.535  11.938  0.00  0.00    +0.006 C 
ATOM     17  C   UNL     1     -33.490 -12.478  12.353  0.00  0.00    +0.019 C 
ENDBRANCH  15  17
BRANCH  15  18
ATOM     18  C   UNL     1     -34.285 -11.257  14.474  0.00  0.00    +0.019 C 
ATOM     19  C   UNL     1     -34.629  -9.783  14.264  0.00  0.00    +0.006 C 
ENDBRANCH  15  18
ENDBRANCH   1  15
TORSDOF 4
ENDMDL
MODEL 8
REMARK VINA RESULT:    -3.429      2.229      3.474
REMARK INTER + INTRA:          -4.826
REMARK INTER:                  -4.177
REMARK INTRA:                  -0.649
REMARK UNBOUND:                -0.595
REMARK  Name = 
REMARK  6 active torsions:
REMARK  status: ('A' for Active; 'I' for Inactive)
REMARK    1  A    between atoms: C_1  and  C_2
REMARK    2  A    between atoms: C_2  and  C_3
REMARK    3  A    between atoms: C_3  and  C_4
REMARK    4  A    between atoms: C_3  and  N_6
REMARK    5  A    between atoms: C_4  and  C_5
REMARK    6  A    between atoms: C_10  and  N_14
REMARK                            x       y       z     vdW  Elec       q    Type
REMARK                         _______ _______ _______ _____ _____    ______ ____
ROOT
ATOM      1  N   UNL     1     -29.488 -10.007  17.880  0.00  0.00    -0.311 N 
ATOM      2  C   UNL     1     -28.796 -11.083  18.527  0.00  0.00    +0.217 A 
ATOM      3  N   UNL     1     -29.484 -12.074  19.153  0.00  0.00    -0.221 NA
ATOM      4  C   UNL     1     -28.839 -13.096  19.768  0.00  0.00    +0.150 A 
ATOM      5  C   UNL     1     -27.439 -13.157  19.760  0.00  0.00    +0.184 A 
ATOM      6  C   UNL     1     -26.739 -12.105  19.129  0.00  0.00    +0.152 A 
ATOM      7  N   UNL     1     -25.311 -12.025  19.153  0.00  0.00    -0.341 N 
ATOM      8  N   UNL     1     -27.438 -11.106  18.526  0.00  0.00    -0.198 NA
ATOM      9  H   UNL     1     -28.915  -9.280  17.394  0.00  0.00    +0.149 HD
ATOM     10  H   UNL     1     -24.826 -11.277  18.610  0.00  0.00    +0.144 HD
ATOM     11  H   UNL     1     -24.732 -12.613  19.790  0.00  0.00    +0.144 HD
ENDROOT
BRANCH   5  12
ATOM     12  N   UNL     1     -26.771 -14.280  20.357  0.00  0.00    +0.061 N 
ATOM     13  O   UNL     1     -27.433 -15.061  21.277  0.00  0.00    -0.126 OA
ATOM     14  O   UNL     1     -25.682 -14.683  19.899  0.00  0.00    -0.126 OA
ENDBRANCH   5  12
BRANCH   1  15
ATOM     15  C   UNL     1     -30.953  -9.920  17.849  0.00  0.00    +0.073 C 
BRANCH  15  17
ATOM     16  C   UNL     1     -32.928  -8.542  18.718  0.00  0.00    +0.006 C 
ATOM     17  C   UNL     1     -31.432  -8.828  18.845  0.00  0.00    +0.019 C 
ENDBRANCH  15  17
BRANCH  15  18
ATOM     18  C   UNL     1     -31.420  -9.636  16.402  0.00  0.00    +0.019 C 
ATOM     19  C   UNL     1     -31.356 -10.867  15.499  0.00  0.00    +0.006 C 
ENDBRANCH  15  18
ENDBRANCH   1  15
TORSDOF 4
ENDMDL
