MODEL 1
REMARK VINA RESULT:    -3.584      0.000      0.000
REMARK INTER + INTRA:          -5.088
REMARK INTER:                  -4.422
REMARK INTRA:                  -0.666
REMARK UNBOUND:                -0.666
REMARK  Name = 
REMARK  6 active torsions:
REMARK  status: ('A' for Active; 'I' for Inactive)
REMARK    1  A    between atoms: C_1  and  C_2
REMARK    2  A    between atoms: C_2  and  C_3
REMARK    3  A    between atoms: C_3  and  C_4
REMARK    4  A    between atoms: C_3  and  N_6
REMARK    5  A    between atoms: C_4  and  C_5
REMARK    6  A    between atoms: C_10  and  N_14
REMARK                            x       y       z     vdW  Elec       q    Type
REMARK                         _______ _______ _______ _____ _____    ______ ____
ROOT
ATOM      1  N   UNL     1     -30.647 -11.847  17.825  0.00  0.00    -0.311 N 
ATOM      2  C   UNL     1     -29.462 -12.242  18.528  0.00  0.00    +0.217 A 
ATOM      3  N   UNL     1     -28.239 -11.814  18.120  0.00  0.00    -0.221 NA
ATOM      4  C   UNL     1     -27.111 -12.181  18.779  0.00  0.00    +0.150 A 
ATOM      5  C   UNL     1     -27.189 -13.006  19.909  0.00  0.00    +0.184 A 
ATOM      6  C   UNL     1     -28.465 -13.463  20.303  0.00  0.00    +0.152 A 
ATOM      7  N   UNL     1     -28.639 -14.387  21.382  0.00  0.00    -0.341 N 
ATOM      8  N   UNL     1     -29.562 -13.062  19.606  0.00  0.00    -0.198 NA
ATOM      9  H   UNL     1     -31.567 -12.185  18.189  0.00  0.00    +0.149 HD
ATOM     10  H   UNL     1     -29.602 -14.643  21.694  0.00  0.00    +0.144 HD
ATOM     11  H   UNL     1     -27.840 -14.914  21.796  0.00  0.00    +0.144 HD
ENDROOT
BRANCH   5  12
ATOM     12  N   UNL     1     -25.993 -13.332  20.636  0.00  0.00    +0.061 N 
ATOM     13  O   UNL     1     -26.059 -13.579  21.988  0.00  0.00    -0.126 OA
ATOM     14  O   UNL     1     -24.938 -13.604  20.026  0.00  0.00    -0.126 OA
ENDBRANCH   5  12
BRANCH   1  15
ATOM     15  C   UNL     1     -30.608 -10.968  16.649  0.00  0.00    +0.073 C 
BRANCH  15  17
ATOM     16  C   UNL     1     -30.992 -12.861  14.969  0.00  0.00    +0.006 C 
ATOM     17  C   UNL     1     -31.525 -11.544  15.535  0.00  0.00    +0.019 C 
ENDBRANCH  15  17
BRANCH  15  18
ATOM     18  C   UNL     1     -31.023  -9.537  17.065  0.00  0.00    +0.019 C 
ATOM     19  C   UNL     1     -32.533  -9.372  17.226  0.00  0.00    +0.006 C 
ENDBRANCH  15  18
ENDBRANCH   1  15
TORSDOF 4
ENDMDL
MODEL 2
REMARK VINA RESULT:    -3.533      2.731      4.306
REMARK INTER + INTRA:          -5.025
REMARK INTER:                  -4.534
REMARK INTRA:                  -0.491
REMARK UNBOUND:                -0.666
REMARK  Name = 
REMARK  6 active torsions:
REMARK  status: ('A' for Active; 'I' for Inactive)
REMARK    1  A    between atoms: C_1  and  C_2
REMARK    2  A    between atoms: C_2  and  C_3
REMARK    3  A    between atoms: C_3  and  C_4
REMARK    4  A    between atoms: C_3  and  N_6
REMARK    5  A    between atoms: C_4  and  C_5
REMARK    6  A    between atoms: C_10  and  N_14
REMARK                            x       y       z     vdW  Elec       q    Type
REMARK                         _______ _______ _______ _____ _____    ______ ____
ROOT
ATOM      1  N   UNL     1     -29.135 -14.034  15.008  0.00  0.00    -0.311 N 
ATOM      2  C   UNL     1     -29.368 -13.807  16.404  0.00  0.00    +0.217 A 
ATOM      3  N   UNL     1     -30.590 -14.037  16.950  0.00  0.00    -0.221 NA
ATOM      4  C   UNL     1     -30.821 -13.824  18.269  0.00  0.00    +0.150 A 
ATOM      5  C   UNL     1     -29.791 -13.372  19.104  0.00  0.00    +0.184 A 
ATOM      6  C   UNL     1     -28.534 -13.112  18.516  0.00  0.00    +0.152 A 
ATOM      7  N   UNL     1     -27.449 -12.554  19.263  0.00  0.00    -0.341 N 
ATOM      8  N   UNL     1     -28.359 -13.344  17.187  0.00  0.00    -0.198 NA
ATOM      9  H   UNL     1     -28.172 -13.863  14.638  0.00  0.00    +0.149 HD
ATOM     10  H   UNL     1     -26.512 -12.448  18.814  0.00  0.00    +0.144 HD
ATOM     11  H   UNL     1     -27.583 -12.134  20.207  0.00  0.00    +0.144 HD
ENDROOT
BRANCH   5  12
ATOM     12  N   UNL     1     -30.031 -13.216  20.512  0.00  0.00    +0.061 N 
ATOM     13  O   UNL     1     -29.048 -13.546  21.417  0.00  0.00    -0.126 OA
ATOM     14  O   UNL     1     -31.033 -12.588  20.915  0.00  0.00    -0.126 OA
ENDBRANCH   5  12
BRANCH   1  15
ATOM     15  C   UNL     1     -30.183 -14.528  14.105  0.00  0.00    +0.073 C 
BRANCH  15  17
ATOM     16  C   UNL     1     -31.741 -13.435  12.393  0.00  0.00    +0.006 C 
ATOM     17  C   UNL     1     -31.207 -13.394  13.825  0.00  0.00    +0.019 C 
ENDBRANCH  15  17
BRANCH  15  18
ATOM     18  C   UNL     1     -29.533 -15.062  12.808  0.00  0.00    +0.019 C 
ATOM     19  C   UNL     1     -28.030 -14.794  12.735  0.00  0.00    +0.006 C 
ENDBRANCH  15  18
ENDBRANCH   1  15
TORSDOF 4
ENDMDL
MODEL 3
REMARK VINA RESULT:    -3.498      2.793      3.929
REMARK INTER + INTRA:          -4.983
REMARK INTER:                  -4.329
REMARK INTRA:                  -0.653
REMARK UNBOUND:                -0.666
REMARK  Name = 
REMARK  6 active torsions:
REMARK  status: ('A' for Active; 'I' for Inactive)
REMARK    1  A    between atoms: C_1  and  C_2
REMARK    2  A    between atoms: C_2  and  C_3
REMARK    3  A    between atoms: C_3  and  C_4
REMARK    4  A    between atoms: C_3  and  N_6
REMARK    5  A    between atoms: C_4  and  C_5
REMARK    6  A    between atoms: C_10  and  N_14
REMARK                            x       y       z     vdW  Elec       q    Type
REMARK                         _______ _______ _______ _____ _____    ______ ____
ROOT
ATOM      1  N   UNL     1     -31.063 -14.046  15.286  0.00  0.00    -0.311 N 
ATOM      2  C   UNL     1     -30.707 -13.336  16.479  0.00  0.00    +0.217 A 
ATOM      3  N   UNL     1     -30.140 -12.103  16.410  0.00  0.00    -0.221 NA
ATOM      4  C   UNL     1     -29.799 -11.423  17.533  0.00  0.00    +0.150 A 
ATOM      5  C   UNL     1     -30.039 -11.978  18.797  0.00  0.00    +0.184 A 
ATOM      6  C   UNL     1     -30.603 -13.272  18.850  0.00  0.00    +0.152 A 
ATOM      7  N   UNL     1     -30.794 -13.964  20.088  0.00  0.00    -0.341 N 
ATOM      8  N   UNL     1     -30.927 -13.907  17.692  0.00  0.00    -0.198 NA
ATOM      9  H   UNL     1     -31.516 -14.983  15.391  0.00  0.00    +0.149 HD
ATOM     10  H   UNL     1     -31.285 -14.885  20.095  0.00  0.00    +0.144 HD
ATOM     11  H   UNL     1     -30.355 -13.643  20.978  0.00  0.00    +0.144 HD
ENDROOT
BRANCH   5  12
ATOM     12  N   UNL     1     -29.735 -11.219  19.978  0.00  0.00    +0.061 N 
ATOM     13  O   UNL     1     -29.289 -11.861  21.110  0.00  0.00    -0.126 OA
ATOM     14  O   UNL     1     -29.665  -9.973  19.926  0.00  0.00    -0.126 OA
ENDBRANCH   5  12
BRANCH   1  15
ATOM     15  C   UNL     1     -30.847 -13.489  13.944  0.00  0.00    +0.073 C 
BRANCH  15  17
ATOM     16  C   UNL     1     -28.674 -14.686  13.313  0.00  0.00    +0.006 C 
ATOM     17  C   UNL     1     -30.172 -14.555  13.039  0.00  0.00    +0.019 C 
ENDBRANCH  15  17
BRANCH  15  18
ATOM     18  C   UNL     1     -32.197 -13.001  13.369  0.00  0.00    +0.019 C 
ATOM     19  C   UNL     1     -32.445 -13.475  11.938  0.00  0.00    +0.006 C 
ENDBRANCH  15  18
ENDBRANCH   1  15
TORSDOF 4
ENDMDL
MODEL 4
REMARK VINA RESULT:    -3.407      2.722      3.749
REMARK INTER + INTRA:          -4.870
REMARK INTER:                  -4.225
REMARK INTRA:                  -0.645
REMARK UNBOUND:                -0.666
REMARK  Name = 
REMARK  6 active torsions:
REMARK  status: ('A' for Active; 'I' for Inactive)
REMARK    1  A    between atoms: C_1  and  C_2
REMARK    2  A    between atoms: C_2  and  C_3
REMARK    3  A    between atoms: C_3  and  C_4
REMARK    4  A    between atoms: C_3  and  N_6
REMARK    5  A    between atoms: C_4  and  C_5
REMARK    6  A    between atoms: C_10  and  N_14
REMARK                            x       y       z     vdW  Elec       q    Type
REMARK                         _______ _______ _______ _____ _____    ______ ____
ROOT
ATOM      1  N   UNL     1     -33.109 -12.600  14.995  0.00  0.00    -0.311 N 
ATOM      2  C   UNL     1     -31.956 -12.520  15.843  0.00  0.00    +0.217 A 
ATOM      3  N   UNL     1     -31.264 -11.357  15.965  0.00  0.00    -0.221 NA
ATOM      4  C   UNL     1     -30.172 -11.270  16.765  0.00  0.00    +0.150 A 
ATOM      5  C   UNL     1     -29.740 -12.385  17.496  0.00  0.00    +0.184 A 
ATOM      6  C   UNL     1     -30.454 -13.592  17.336  0.00  0.00    +0.152 A 
ATOM      7  N   UNL     1     -30.033 -14.809  17.961  0.00  0.00    -0.341 N 
ATOM      8  N   UNL     1     -31.543 -13.621  16.522  0.00  0.00    -0.198 NA
ATOM      9  H   UNL     1     -33.620 -13.511  14.950  0.00  0.00    +0.149 HD
ATOM     10  H   UNL     1     -30.627 -15.663  17.883  0.00  0.00    +0.144 HD
ATOM     11  H   UNL     1     -29.090 -14.914  18.394  0.00  0.00    +0.144 HD
ENDROOT
BRANCH   5  12
ATOM     12  N   UNL     1     -28.622 -12.260  18.390  0.00  0.00    +0.061 N 
ATOM     13  O   UNL     1     -27.692 -13.271  18.469  0.00  0.00    -0.126 OA
ATOM     14  O   UNL     1     -28.368 -11.165  18.933  0.00  0.00    -0.126 OA
ENDBRANCH   5  12
BRANCH   1  15
ATOM     15  C   UNL     1     -33.605 -11.449  14.230  0.00  0.00    +0.073 C 
BRANCH  15  17
ATOM     16  C   UNL     1     -33.427 -12.978  12.184  0.00  0.00    +0.006 C 
ATOM     17  C   UNL     1     -34.278 -11.944  12.920  0.00  0.00    +0.019 C 
ENDBRANCH  15  17
BRANCH  15  18
ATOM     18  C   UNL     1     -34.573 -10.626  15.111  0.00  0.00    +0.019 C 
ATOM     19  C   UNL     1     -34.238  -9.136  15.143  0.00  0.00    +0.006 C 
ENDBRANCH  15  18
ENDBRANCH   1  15
TORSDOF 4
ENDMDL
MODEL 5
REMARK VINA RESULT:    -3.365      4.174      5.745
REMARK INTER + INTRA:          -4.818
REMARK INTER:                  -4.562
REMARK INTRA:                  -0.256
REMARK UNBOUND:                -0.666
REMARK  Name = 
REMARK  6 active torsions:
REMARK  status: ('A' for Active; 'I' for Inactive)
REMARK    1  A    between atoms: C_1  and  C_2
REMARK    2  A    between atoms: C_2  and  C_3
REMARK    3  A    between atoms: C_3  and  C_4
REMARK    4  A    between atoms: C_3  and  N_6
REMARK    5  A    between atoms: C_4  and  C_5
REMARK    6  A    between atoms: C_10  and  N_14
REMARK                            x       y       z     vdW  Elec       q    Type
REMARK                         _______ _______ _______ _____ _____    ______ ____
ROOT
ATOM      1  N   UNL     1     -32.144 -11.781  13.993  0.00  0.00    -0.311 N 
ATOM      2  C   UNL     1     -31.844 -11.056  15.192  0.00  0.00    +0.217 A 
ATOM      3  N   UNL     1     -30.747 -11.363  15.932  0.00  0.00    -0.221 NA
ATOM      4  C   UNL     1     -30.453 -10.683  17.068  0.00  0.00    +0.150 A 
ATOM      5  C   UNL     1     -31.276  -9.633  17.497  0.00  0.00    +0.184 A 
ATOM      6  C   UNL     1     -32.427  -9.345  16.731  0.00  0.00    +0.152 A 
ATOM      7  N   UNL     1     -33.381  -8.359  17.139  0.00  0.00    -0.341 N 
ATOM      8  N   UNL     1     -32.671 -10.059  15.599  0.00  0.00    -0.198 NA
ATOM      9  H   UNL     1     -32.988 -11.494  13.446  0.00  0.00    +0.149 HD
ATOM     10  H   UNL     1     -34.178  -8.119  16.509  0.00  0.00    +0.144 HD
ATOM     11  H   UNL     1     -33.383  -7.952  18.099  0.00  0.00    +0.144 HD
ENDROOT
BRANCH   5  12
ATOM     12  N   UNL     1     -30.917  -8.877  18.665  0.00  0.00    +0.061 N 
ATOM     13  O   UNL     1     -29.717  -9.118  19.295  0.00  0.00    -0.126 OA
ATOM     14  O   UNL     1     -31.574  -7.866  18.989  0.00  0.00    -0.126 OA
ENDBRANCH   5  12
BRANCH   1  15
ATOM     15  C   UNL     1     -31.295 -12.874  13.500  0.00  0.00    +0.073 C 
BRANCH  15  17
ATOM     16  C   UNL     1     -29.847 -14.668  14.613  0.00  0.00    +0.006 C 
ATOM     17  C   UNL     1     -31.221 -14.000  14.567  0.00  0.00    +0.019 C 
ENDBRANCH  15  17
BRANCH  15  18
ATOM     18  C   UNL     1     -31.848 -13.383  12.149  0.00  0.00    +0.019 C 
ATOM     19  C   UNL     1     -33.352 -13.165  11.995  0.00  0.00    +0.006 C 
ENDBRANCH  15  18
ENDBRANCH   1  15
TORSDOF 4
ENDMDL
MODEL 6
REMARK VINA RESULT:    -3.361      2.831      3.856
REMARK INTER + INTRA:          -4.814
REMARK INTER:                  -4.219
REMARK INTRA:                  -0.594
REMARK UNBOUND:                -0.666
REMARK  Name = 
REMARK  6 active torsions:
REMARK  status: ('A' for Active; 'I' for Inactive)
REMARK    1  A    between atoms: C_1  and  C_2
REMARK    2  A    between atoms: C_2  and  C_3
REMARK    3  A    between atoms: C_3  and  C_4
REMARK    4  A    between atoms: C_3  and  N_6
REMARK    5  A    between atoms: C_4  and  C_5
REMARK    6  A    between atoms: C_10  and  N_14
REMARK                            x       y       z     vdW  Elec       q    Type
REMARK                         _______ _______ _______ _____ _____    ______ ____
ROOT
ATOM      1  N   UNL     1     -29.201 -14.338  16.653  0.00  0.00    -0.311 N 
ATOM      2  C   UNL     1     -29.296 -13.279  17.613  0.00  0.00    +0.217 A 
ATOM      3  N   UNL     1     -29.551 -12.004  17.218  0.00  0.00    -0.221 NA
ATOM      4  C   UNL     1     -29.643 -10.995  18.119  0.00  0.00    +0.150 A 
ATOM      5  C   UNL     1     -29.488 -11.251  19.488  0.00  0.00    +0.184 A 
ATOM      6  C   UNL     1     -29.196 -12.576  19.879  0.00  0.00    +0.152 A 
ATOM      7  N   UNL     1     -28.923 -12.921  21.241  0.00  0.00    -0.341 N 
ATOM      8  N   UNL     1     -29.117 -13.550  18.932  0.00  0.00    -0.198 NA
ATOM      9  H   UNL     1     -29.024 -15.306  17.007  0.00  0.00    +0.149 HD
ATOM     10  H   UNL     1     -28.788 -13.922  21.504  0.00  0.00    +0.144 HD
ATOM     11  H   UNL     1     -28.732 -12.199  21.969  0.00  0.00    +0.144 HD
ENDROOT
BRANCH   5  12
ATOM     12  N   UNL     1     -29.655 -10.185  20.436  0.00  0.00    +0.061 N 
ATOM     13  O   UNL     1     -30.172  -8.978  20.026  0.00  0.00    -0.126 OA
ATOM     14  O   UNL     1     -29.539 -10.405  21.659  0.00  0.00    -0.126 OA
ENDBRANCH   5  12
BRANCH   1  15
ATOM     15  C   UNL     1     -29.378 -14.113  15.212  0.00  0.00    +0.073 C 
BRANCH  15  17
ATOM     16  C   UNL     1     -28.133 -14.514  13.012  0.00  0.00    +0.006 C 
ATOM     17  C   UNL     1     -28.421 -15.043  14.417  0.00  0.00    +0.019 C 
ENDBRANCH  15  17
BRANCH  15  18
ATOM     18  C   UNL     1     -30.861 -14.340  14.836  0.00  0.00    +0.019 C 
ATOM     19  C   UNL     1     -31.537 -13.090  14.276  0.00  0.00    +0.006 C 
ENDBRANCH  15  18
ENDBRANCH   1  15
TORSDOF 4
ENDMDL
MODEL 7
REMARK VINA RESULT:    -3.325      2.026      2.573
REMARK INTER + INTRA:          -4.769
REMARK INTER:                  -4.161
REMARK INTRA:                  -0.608
REMARK UNBOUND:                -0.666
REMARK  Name = 
REMARK  6 active torsions:
REMARK  status: ('A' for Active; 'I' for Inactive)
REMARK    1  A    between atoms: C_1  and  C_2
REMARK    2  A    between atoms: C_2  and  C_3
REMARK    3  A    between atoms: C_3  and  C_4
REMARK    4  A    between atoms: C_3  and  N_6
REMARK    5  A    between atoms: C_4  and  C_5
REMARK    6  A    between atoms: C_10  and  N_14
REMARK                            x       y       z     vdW  Elec       q    Type
REMARK                         _______ _______ _______ _____ _____    ______ ____
ROOT
ATOM      1  N   UNL     1     -32.653 -11.630  18.379  0.00  0.00    -0.311 N 
ATOM      2  C   UNL     1     -31.226 -11.709  18.476  0.00  0.00    +0.217 A 
ATOM      3  N   UNL     1     -30.444 -10.677  18.062  0.00  0.00    -0.221 NA
ATOM      4  C   UNL     1     -29.092 -10.741  18.149  0.00  0.00    +0.150 A 
ATOM      5  C   UNL     1     -28.471 -11.877  18.684  0.00  0.00    +0.184 A 
ATOM      6  C   UNL     1     -29.296 -12.951  19.084  0.00  0.00    +0.152 A 
ATOM      7  N   UNL     1     -28.753 -14.191  19.549  0.00  0.00    -0.341 N 
ATOM      8  N   UNL     1     -30.647 -12.831  18.975  0.00  0.00    -0.198 NA
ATOM      9  H   UNL     1     -33.213 -12.441  18.730  0.00  0.00    +0.149 HD
ATOM     10  H   UNL     1     -29.393 -14.933  19.909  0.00  0.00    +0.144 HD
ATOM     11  H   UNL     1     -27.747 -14.435  19.432  0.00  0.00    +0.144 HD
ENDROOT
BRANCH   5  12
ATOM     12  N   UNL     1     -27.042 -11.904  18.833  0.00  0.00    +0.061 N 
ATOM     13  O   UNL     1     -26.435 -12.989  19.423  0.00  0.00    -0.126 OA
ATOM     14  O   UNL     1     -26.331 -11.063  18.245  0.00  0.00    -0.126 OA
ENDBRANCH   5  12
BRANCH   1  15
ATOM     15  C   UNL     1     -33.342 -10.449  17.844  0.00  0.00    +0.073 C 
BRANCH  15  17
ATOM     16  C   UNL     1     -34.106 -11.771  15.789  0.00  0.00    +0.006 C 
ATOM     17  C   UNL     1     -34.542 -10.897  16.965  0.00  0.00    +0.019 C 
ENDBRANCH  15  17
BRANCH  15  18
ATOM     18  C   UNL     1     -33.782  -9.538  19.014  0.00  0.00    +0.019 C 
ATOM     19  C   UNL     1     -33.026  -8.211  19.060  0.00  0.00    +0.006 C 
ENDBRANCH  15  18
ENDBRANCH   1  15
TORSDOF 4
ENDMDL
MODEL 8
REMARK VINA RESULT:    -3.222      1.308      2.668
REMARK INTER + INTRA:          -4.642
REMARK INTER:                  -4.017
REMARK INTRA:                  -0.625
REMARK UNBOUND:                -0.666
REMARK  Name = 
REMARK  6 active torsions:
REMARK  status: ('A' for Active; 'I' for Inactive)
REMARK    1  A    between atoms: C_1  and  C_2
REMARK    2  A    between atoms: C_2  and  C_3
REMARK    3  A    between atoms: C_3  and  C_4
REMARK    4  A    between atoms: C_3  and  N_6
REMARK    5  A    between atoms: C_4  and  C_5
REMARK    6  A    between atoms: C_10  and  N_14
REMARK                            x       y       z     vdW  Elec       q    Type
REMARK                         _______ _______ _______ _____ _____    ______ ____
ROOT
ATOM      1  N   UNL     1     -29.579 -10.495  17.711  0.00  0.00    -0.311 N 
ATOM      2  C   UNL     1     -29.045 -11.476  18.608  0.00  0.00    +0.217 A 
ATOM      3  N   UNL     1     -29.869 -12.233  19.379  0.00  0.00    -0.221 NA
ATOM      4  C   UNL     1     -29.373 -13.164  20.232  0.00  0.00    +0.150 A 
ATOM      5  C   UNL     1     -27.991 -13.374  20.326  0.00  0.00    +0.184 A 
ATOM      6  C   UNL     1     -27.148 -12.560  19.538  0.00  0.00    +0.152 A 
ATOM      7  N   UNL     1     -25.722 -12.628  19.636  0.00  0.00    -0.341 N 
ATOM      8  N   UNL     1     -27.700 -11.642  18.699  0.00  0.00    -0.198 NA
ATOM      9  H   UNL     1     -28.906  -9.951  17.123  0.00  0.00    +0.149 HD
ATOM     10  H   UNL     1     -25.131 -12.067  18.983  0.00  0.00    +0.144 HD
ATOM     11  H   UNL     1     -25.242 -13.126  20.416  0.00  0.00    +0.144 HD
ENDROOT
BRANCH   5  12
ATOM     12  N   UNL     1     -27.484 -14.409  21.183  0.00  0.00    +0.061 N 
ATOM     13  O   UNL     1     -28.329 -15.046  22.062  0.00  0.00    -0.126 OA
ATOM     14  O   UNL     1     -26.345 -14.884  20.992  0.00  0.00    -0.126 OA
ENDBRANCH   5  12
BRANCH   1  15
ATOM     15  C   UNL     1     -31.022 -10.261  17.568  0.00  0.00    +0.073 C 
BRANCH  15  17
ATOM     16  C   UNL     1     -33.013  -9.144  18.728  0.00  0.00    +0.006 C 
ATOM     17  C   UNL     1     -31.490  -9.224  18.627  0.00  0.00    +0.019 C 
ENDBRANCH  15  17
BRANCH  15  18
ATOM     18  C   UNL     1     -31.327  -9.800  16.124  0.00  0.00    +0.019 C 
ATOM     19  C   UNL     1     -31.682 -10.955  15.188  0.00  0.00    +0.006 C 
ENDBRANCH  15  18
ENDBRANCH   1  15
TORSDOF 4
ENDMDL
