MODEL 1
REMARK VINA RESULT:    -5.343      0.000      0.000
REMARK INTER + INTRA:          -9.207
REMARK INTER:                  -7.218
REMARK INTRA:                  -1.989
REMARK UNBOUND:                -1.989
REMARK  Name = 
REMARK  9 active torsions:
REMARK  status: ('A' for Active; 'I' for Inactive)
REMARK    1  A    between atoms: C_1  and  C_2
REMARK    2  A    between atoms: C_6  and  C_9
REMARK    3  A    between atoms: C_7  and  C_8
REMARK    4  A    between atoms: C_9  and  C_10
REMARK    5  A    between atoms: C_9  and  N_11
REMARK    6  A    between atoms: C_12  and  C_14
REMARK    7  A    between atoms: C_19  and  O_20
REMARK    8  A    between atoms: O_20  and  C_21
REMARK    9  A    between atoms: C_21  and  C_22
REMARK                            x       y       z     vdW  Elec       q    Type
REMARK                         _______ _______ _______ _____ _____    ______ ____
ROOT
ATOM      1  N   UNL     1     -30.486 -11.094  17.547  0.00  0.00    -0.305 N 
ATOM      2  C   UNL     1     -30.816 -10.325  16.377  0.00  0.00    +0.248 C 
ATOM      3  O   UNL     1     -30.273  -9.201  16.193  0.00  0.00    -0.270 OA
ATOM      4  H   UNL     1     -31.048 -11.951  17.754  0.00  0.00    +0.150 HD
ENDROOT
BRANCH   2   5
ATOM      5  C   UNL     1     -31.836 -10.802  15.412  0.00  0.00    +0.078 A 
ATOM      6  C   UNL     1     -32.973 -10.008  15.183  0.00  0.00    +0.017 A 
ATOM      7  C   UNL     1     -33.973 -10.434  14.308  0.00  0.00    +0.001 A 
ATOM      8  C   UNL     1     -33.849 -11.654  13.646  0.00  0.00    +0.004 A 
ATOM      9  C   UNL     1     -32.718 -12.447  13.846  0.00  0.00    +0.046 A 
ATOM     10  C   UNL     1     -31.693 -12.027  14.720  0.00  0.00    +0.133 A 
BRANCH  10  11
ATOM     11  O   UNL     1     -30.517 -12.777  14.893  0.00  0.00    -0.482 OA
BRANCH  11  12
ATOM     12  C   UNL     1     -30.449 -14.144  15.297  0.00  0.00    +0.324 C 
BRANCH  12  13
ATOM     13  C   UNL     1     -29.540 -14.294  16.478  0.00  0.00    +0.248 C 
ATOM     14  N   UNL     1     -30.038 -14.828  17.704  0.00  0.00    -0.327 N 
ATOM     15  O   UNL     1     -28.333 -13.947  16.391  0.00  0.00    -0.272 OA
ATOM     16  H   UNL     1     -31.040 -15.107  17.794  0.00  0.00    +0.145 HD
ATOM     17  H   UNL     1     -29.405 -14.940  18.527  0.00  0.00    +0.145 HD
ENDBRANCH  12  13
ENDBRANCH  11  12
ENDBRANCH  10  11
ENDBRANCH   2   5
BRANCH   1  18
ATOM     18  C   UNL     1     -29.575 -10.587  18.580  0.00  0.00    +0.101 C 
ATOM     19  C   UNL     1     -30.250  -9.530  19.464  0.00  0.00    +0.033 C 
BRANCH  18  25
ATOM     20  C   UNL     1     -25.730 -13.659  20.201  0.00  0.00    +0.044 C 
ATOM     21  C   UNL     1     -27.160 -13.177  20.209  0.00  0.00    -0.047 A 
ATOM     22  C   UNL     1     -28.058 -13.784  21.099  0.00  0.00    +0.003 A 
ATOM     23  C   UNL     1     -29.384 -13.375  21.154  0.00  0.00    +0.001 A 
ATOM     24  C   UNL     1     -29.834 -12.348  20.333  0.00  0.00    +0.006 A 
ATOM     25  C   UNL     1     -28.969 -11.705  19.427  0.00  0.00    -0.024 A 
ATOM     26  C   UNL     1     -27.615 -12.159  19.326  0.00  0.00    -0.043 A 
ATOM     27  C   UNL     1     -26.627 -11.539  18.359  0.00  0.00    +0.044 C 
ENDBRANCH  18  25
ENDBRANCH   1  18
TORSDOF 6
ENDMDL
MODEL 2
REMARK VINA RESULT:    -4.891      1.535      6.914
REMARK INTER + INTRA:          -8.596
REMARK INTER:                  -6.977
REMARK INTRA:                  -1.619
REMARK UNBOUND:                -1.989
REMARK  Name = 
REMARK  9 active torsions:
REMARK  status: ('A' for Active; 'I' for Inactive)
REMARK    1  A    between atoms: C_1  and  C_2
REMARK    2  A    between atoms: C_6  and  C_9
REMARK    3  A    between atoms: C_7  and  C_8
REMARK    4  A    between atoms: C_9  and  C_10
REMARK    5  A    between atoms: C_9  and  N_11
REMARK    6  A    between atoms: C_12  and  C_14
REMARK    7  A    between atoms: C_19  and  O_20
REMARK    8  A    between atoms: O_20  and  C_21
REMARK    9  A    between atoms: C_21  and  C_22
REMARK                            x       y       z     vdW  Elec       q    Type
REMARK                         _______ _______ _______ _____ _____    ______ ____
ROOT
ATOM      1  N   UNL     1     -30.321 -13.031  17.158  0.00  0.00    -0.305 N 
ATOM      2  C   UNL     1     -29.030 -13.109  17.786  0.00  0.00    +0.248 C 
ATOM      3  O   UNL     1     -28.022 -13.447  17.107  0.00  0.00    -0.270 OA
ATOM      4  H   UNL     1     -31.161 -12.889  17.763  0.00  0.00    +0.150 HD
ENDROOT
BRANCH   2   5
ATOM      5  C   UNL     1     -28.871 -12.861  19.240  0.00  0.00    +0.078 A 
ATOM      6  C   UNL     1     -27.892 -13.582  19.945  0.00  0.00    +0.017 A 
ATOM      7  C   UNL     1     -27.731 -13.404  21.320  0.00  0.00    +0.001 A 
ATOM      8  C   UNL     1     -28.540 -12.500  22.007  0.00  0.00    +0.004 A 
ATOM      9  C   UNL     1     -29.504 -11.761  21.319  0.00  0.00    +0.046 A 
ATOM     10  C   UNL     1     -29.673 -11.922  19.928  0.00  0.00    +0.133 A 
BRANCH  10  11
ATOM     11  O   UNL     1     -30.595 -11.147  19.203  0.00  0.00    -0.482 OA
BRANCH  11  12
ATOM     12  C   UNL     1     -30.451  -9.766  18.874  0.00  0.00    +0.324 C 
BRANCH  12  13
ATOM     13  C   UNL     1     -30.810  -9.532  17.439  0.00  0.00    +0.248 C 
ATOM     14  N   UNL     1     -31.988  -8.798  17.105  0.00  0.00    -0.327 N 
ATOM     15  O   UNL     1     -30.074  -9.984  16.524  0.00  0.00    -0.272 OA
ATOM     16  H   UNL     1     -32.615  -8.430  17.854  0.00  0.00    +0.145 HD
ATOM     17  H   UNL     1     -32.237  -8.627  16.106  0.00  0.00    +0.145 HD
ENDBRANCH  12  13
ENDBRANCH  11  12
ENDBRANCH  10  11
ENDBRANCH   2   5
BRANCH   1  18
ATOM     18  C   UNL     1     -30.525 -13.394  15.751  0.00  0.00    +0.101 C 
ATOM     19  C   UNL     1     -30.452 -14.912  15.539  0.00  0.00    +0.033 C 
BRANCH  18  25
ATOM     20  C   UNL     1     -33.828 -12.210  11.939  0.00  0.00    +0.044 C 
ATOM     21  C   UNL     1     -33.404 -12.247  13.386  0.00  0.00    -0.047 A 
ATOM     22  C   UNL     1     -34.285 -11.732  14.348  0.00  0.00    +0.003 A 
ATOM     23  C   UNL     1     -33.949 -11.749  15.695  0.00  0.00    +0.001 A 
ATOM     24  C   UNL     1     -32.737 -12.289  16.108  0.00  0.00    +0.006 A 
ATOM     25  C   UNL     1     -31.822 -12.823  15.180  0.00  0.00    -0.024 A 
ATOM     26  C   UNL     1     -32.138 -12.759  13.786  0.00  0.00    -0.043 A 
ATOM     27  C   UNL     1     -31.199 -13.288  12.721  0.00  0.00    +0.044 C 
ENDBRANCH  18  25
ENDBRANCH   1  18
TORSDOF 6
ENDMDL
MODEL 3
REMARK VINA RESULT:    -4.802      1.845      2.802
REMARK INTER + INTRA:          -8.475
REMARK INTER:                  -6.664
REMARK INTRA:                  -1.811
REMARK UNBOUND:                -1.989
REMARK  Name = 
REMARK  9 active torsions:
REMARK  status: ('A' for Active; 'I' for Inactive)
REMARK    1  A    between atoms: C_1  and  C_2
REMARK    2  A    between atoms: C_6  and  C_9
REMARK    3  A    between atoms: C_7  and  C_8
REMARK    4  A    between atoms: C_9  and  C_10
REMARK    5  A    between atoms: C_9  and  N_11
REMARK    6  A    between atoms: C_12  and  C_14
REMARK    7  A    between atoms: C_19  and  O_20
REMARK    8  A    between atoms: O_20  and  C_21
REMARK    9  A    between atoms: C_21  and  C_22
REMARK                            x       y       z     vdW  Elec       q    Type
REMARK                         _______ _______ _______ _____ _____    ______ ____
ROOT
ATOM      1  N   UNL     1     -32.022 -10.211  16.016  0.00  0.00    -0.305 N 
ATOM      2  C   UNL     1     -33.091 -11.050  15.546  0.00  0.00    +0.248 C 
ATOM      3  O   UNL     1     -34.148 -11.159  16.227  0.00  0.00    -0.270 OA
ATOM      4  H   UNL     1     -31.106 -10.245  15.515  0.00  0.00    +0.150 HD
ENDROOT
BRANCH   2   5
ATOM      5  C   UNL     1     -32.949 -11.843  14.301  0.00  0.00    +0.078 A 
ATOM      6  C   UNL     1     -33.941 -11.730  13.311  0.00  0.00    +0.017 A 
ATOM      7  C   UNL     1     -33.865 -12.484  12.139  0.00  0.00    +0.001 A 
ATOM      8  C   UNL     1     -32.795 -13.355  11.938  0.00  0.00    +0.004 A 
ATOM      9  C   UNL     1     -31.792 -13.466  12.901  0.00  0.00    +0.046 A 
ATOM     10  C   UNL     1     -31.849 -12.705  14.087  0.00  0.00    +0.133 A 
BRANCH  10  11
ATOM     11  O   UNL     1     -30.821 -12.753  15.045  0.00  0.00    -0.482 OA
BRANCH  11  12
ATOM     12  C   UNL     1     -30.277 -13.937  15.628  0.00  0.00    +0.324 C 
BRANCH  12  13
ATOM     13  C   UNL     1     -30.893 -14.186  16.970  0.00  0.00    +0.248 C 
ATOM     14  N   UNL     1     -30.115 -14.755  18.023  0.00  0.00    -0.327 N 
ATOM     15  O   UNL     1     -32.101 -13.893  17.173  0.00  0.00    -0.272 OA
ATOM     16  H   UNL     1     -29.116 -15.015  17.864  0.00  0.00    +0.145 HD
ATOM     17  H   UNL     1     -30.540 -14.923  18.962  0.00  0.00    +0.145 HD
ENDBRANCH  12  13
ENDBRANCH  11  12
ENDBRANCH  10  11
ENDBRANCH   2   5
BRANCH   1  18
ATOM     18  C   UNL     1     -32.088  -9.516  17.307  0.00  0.00    +0.101 C 
ATOM     19  C   UNL     1     -33.472  -8.899  17.550  0.00  0.00    +0.033 C 
BRANCH  18  25
ATOM     20  C   UNL     1     -28.665 -12.010  20.291  0.00  0.00    +0.044 C 
ATOM     21  C   UNL     1     -30.066 -11.605  19.903  0.00  0.00    -0.047 A 
ATOM     22  C   UNL     1     -31.129 -12.058  20.696  0.00  0.00    +0.003 A 
ATOM     23  C   UNL     1     -32.438 -11.709  20.390  0.00  0.00    +0.001 A 
ATOM     24  C   UNL     1     -32.707 -10.893  19.298  0.00  0.00    +0.006 A 
ATOM     25  C   UNL     1     -31.673 -10.409  18.475  0.00  0.00    -0.024 A 
ATOM     26  C   UNL     1     -30.327 -10.810  18.752  0.00  0.00    -0.043 A 
ATOM     27  C   UNL     1     -29.158 -10.354  17.902  0.00  0.00    +0.044 C 
ENDBRANCH  18  25
ENDBRANCH   1  18
TORSDOF 6
ENDMDL
MODEL 4
REMARK VINA RESULT:    -4.787      1.544      2.008
REMARK INTER + INTRA:          -8.456
REMARK INTER:                  -5.872
REMARK INTRA:                  -2.584
REMARK UNBOUND:                -1.989
REMARK  Name = 
REMARK  9 active torsions:
REMARK  status: ('A' for Active; 'I' for Inactive)
REMARK    1  A    between atoms: C_1  and  C_2
REMARK    2  A    between atoms: C_6  and  C_9
REMARK    3  A    between atoms: C_7  and  C_8
REMARK    4  A    between atoms: C_9  and  C_10
REMARK    5  A    between atoms: C_9  and  N_11
REMARK    6  A    between atoms: C_12  and  C_14
REMARK    7  A    between atoms: C_19  and  O_20
REMARK    8  A    between atoms: O_20  and  C_21
REMARK    9  A    between atoms: C_21  and  C_22
REMARK                            x       y       z     vdW  Elec       q    Type
REMARK                         _______ _______ _______ _____ _____    ______ ____
ROOT
ATOM      1  N   UNL     1     -32.321 -11.559  16.795  0.00  0.00    -0.305 N 
ATOM      2  C   UNL     1     -32.596 -10.743  15.643  0.00  0.00    +0.248 C 
ATOM      3  O   UNL     1     -32.545  -9.486  15.740  0.00  0.00    -0.270 OA
ATOM      4  H   UNL     1     -32.507 -12.586  16.732  0.00  0.00    +0.150 HD
ENDROOT
BRANCH   2   5
ATOM      5  C   UNL     1     -33.003 -11.352  14.354  0.00  0.00    +0.078 A 
ATOM      6  C   UNL     1     -34.183 -10.900  13.736  0.00  0.00    +0.017 A 
ATOM      7  C   UNL     1     -34.621 -11.469  12.539  0.00  0.00    +0.001 A 
ATOM      8  C   UNL     1     -33.884 -12.490  11.941  0.00  0.00    +0.004 A 
ATOM      9  C   UNL     1     -32.701 -12.937  12.530  0.00  0.00    +0.046 A 
ATOM     10  C   UNL     1     -32.239 -12.367  13.734  0.00  0.00    +0.133 A 
BRANCH  10  11
ATOM     11  O   UNL     1     -31.021 -12.758  14.316  0.00  0.00    -0.482 OA
BRANCH  11  12
ATOM     12  C   UNL     1     -30.612 -14.099  14.581  0.00  0.00    +0.324 C 
BRANCH  12  13
ATOM     13  C   UNL     1     -30.662 -14.377  16.052  0.00  0.00    +0.248 C 
ATOM     14  N   UNL     1     -29.465 -14.684  16.766  0.00  0.00    -0.327 N 
ATOM     15  O   UNL     1     -31.763 -14.340  16.663  0.00  0.00    -0.272 OA
ATOM     16  H   UNL     1     -28.548 -14.732  16.269  0.00  0.00    +0.145 HD
ATOM     17  H   UNL     1     -29.496 -14.871  17.792  0.00  0.00    +0.145 HD
ENDBRANCH  12  13
ENDBRANCH  11  12
ENDBRANCH  10  11
ENDBRANCH   2   5
BRANCH   1  18
ATOM     18  C   UNL     1     -32.040 -10.977  18.112  0.00  0.00    +0.101 C 
ATOM     19  C   UNL     1     -33.300 -10.910  18.985  0.00  0.00    +0.033 C 
BRANCH  18  25
ATOM     20  C   UNL     1     -27.070 -12.040  19.122  0.00  0.00    +0.044 C 
ATOM     21  C   UNL     1     -28.553 -12.221  19.334  0.00  0.00    -0.047 A 
ATOM     22  C   UNL     1     -28.976 -13.124  20.319  0.00  0.00    +0.003 A 
ATOM     23  C   UNL     1     -30.328 -13.323  20.563  0.00  0.00    +0.001 A 
ATOM     24  C   UNL     1     -31.281 -12.618  19.837  0.00  0.00    +0.006 A 
ATOM     25  C   UNL     1     -30.906 -11.697  18.840  0.00  0.00    -0.024 A 
ATOM     26  C   UNL     1     -29.515 -11.527  18.547  0.00  0.00    -0.043 A 
ATOM     27  C   UNL     1     -29.027 -10.576  17.474  0.00  0.00    +0.044 C 
ENDBRANCH  18  25
ENDBRANCH   1  18
TORSDOF 6
ENDMDL
MODEL 5
REMARK VINA RESULT:    -4.415      1.964      4.269
REMARK INTER + INTRA:          -7.952
REMARK INTER:                  -5.781
REMARK INTRA:                  -2.172
REMARK UNBOUND:                -1.989
REMARK  Name = 
REMARK  9 active torsions:
REMARK  status: ('A' for Active; 'I' for Inactive)
REMARK    1  A    between atoms: C_1  and  C_2
REMARK    2  A    between atoms: C_6  and  C_9
REMARK    3  A    between atoms: C_7  and  C_8
REMARK    4  A    between atoms: C_9  and  C_10
REMARK    5  A    between atoms: C_9  and  N_11
REMARK    6  A    between atoms: C_12  and  C_14
REMARK    7  A    between atoms: C_19  and  O_20
REMARK    8  A    between atoms: O_20  and  C_21
REMARK    9  A    between atoms: C_21  and  C_22
REMARK                            x       y       z     vdW  Elec       q    Type
REMARK                         _______ _______ _______ _____ _____    ______ ____
ROOT
ATOM      1  N   UNL     1     -30.201 -12.665  17.545  0.00  0.00    -0.305 N 
ATOM      2  C   UNL     1     -30.404 -13.712  16.581  0.00  0.00    +0.248 C 
ATOM      3  O   UNL     1     -30.118 -14.904  16.880  0.00  0.00    -0.270 OA
ATOM      4  H   UNL     1     -30.308 -11.674  17.233  0.00  0.00    +0.150 HD
ENDROOT
BRANCH   2   5
ATOM      5  C   UNL     1     -30.887 -13.408  15.212  0.00  0.00    +0.078 A 
ATOM      6  C   UNL     1     -30.496 -14.248  14.155  0.00  0.00    +0.017 A 
ATOM      7  C   UNL     1     -30.900 -13.979  12.847  0.00  0.00    +0.001 A 
ATOM      8  C   UNL     1     -31.704 -12.873  12.578  0.00  0.00    +0.004 A 
ATOM      9  C   UNL     1     -32.118 -12.039  13.617  0.00  0.00    +0.046 A 
ATOM     10  C   UNL     1     -31.727 -12.302  14.947  0.00  0.00    +0.133 A 
BRANCH  10  11
ATOM     11  O   UNL     1     -32.179 -11.513  16.018  0.00  0.00    -0.482 OA
BRANCH  11  12
ATOM     12  C   UNL     1     -32.284 -10.089  16.023  0.00  0.00    +0.324 C 
BRANCH  12  13
ATOM     13  C   UNL     1     -31.345  -9.501  17.031  0.00  0.00    +0.248 C 
ATOM     14  N   UNL     1     -31.808  -8.517  17.955  0.00  0.00    -0.327 N 
ATOM     15  O   UNL     1     -30.143  -9.875  17.065  0.00  0.00    -0.272 OA
ATOM     16  H   UNL     1     -32.799  -8.189  17.929  0.00  0.00    +0.145 HD
ATOM     17  H   UNL     1     -31.158  -8.111  18.664  0.00  0.00    +0.145 HD
ENDBRANCH  12  13
ENDBRANCH  11  12
ENDBRANCH  10  11
ENDBRANCH   2   5
BRANCH   1  18
ATOM     18  C   UNL     1     -29.605 -12.924  18.861  0.00  0.00    +0.101 C 
ATOM     19  C   UNL     1     -28.077 -12.797  18.829  0.00  0.00    +0.033 C 
BRANCH  18  25
ATOM     20  C   UNL     1     -33.504 -10.777  21.514  0.00  0.00    +0.044 C 
ATOM     21  C   UNL     1     -32.041 -11.013  21.230  0.00  0.00    -0.047 A 
ATOM     22  C   UNL     1     -31.097 -10.394  22.062  0.00  0.00    +0.003 A 
ATOM     23  C   UNL     1     -29.737 -10.583  21.852  0.00  0.00    +0.001 A 
ATOM     24  C   UNL     1     -29.297 -11.401  20.818  0.00  0.00    +0.006 A 
ATOM     25  C   UNL     1     -30.206 -12.047  19.959  0.00  0.00    -0.024 A 
ATOM     26  C   UNL     1     -31.607 -11.813  20.136  0.00  0.00    -0.043 A 
ATOM     27  C   UNL     1     -32.651 -12.449  19.241  0.00  0.00    +0.044 C 
ENDBRANCH  18  25
ENDBRANCH   1  18
TORSDOF 6
ENDMDL
MODEL 6
REMARK VINA RESULT:    -4.382      2.782      4.489
REMARK INTER + INTRA:          -7.908
REMARK INTER:                  -6.269
REMARK INTRA:                  -1.639
REMARK UNBOUND:                -1.989
REMARK  Name = 
REMARK  9 active torsions:
REMARK  status: ('A' for Active; 'I' for Inactive)
REMARK    1  A    between atoms: C_1  and  C_2
REMARK    2  A    between atoms: C_6  and  C_9
REMARK    3  A    between atoms: C_7  and  C_8
REMARK    4  A    between atoms: C_9  and  C_10
REMARK    5  A    between atoms: C_9  and  N_11
REMARK    6  A    between atoms: C_12  and  C_14
REMARK    7  A    between atoms: C_19  and  O_20
REMARK    8  A    between atoms: O_20  and  C_21
REMARK    9  A    between atoms: C_21  and  C_22
REMARK                            x       y       z     vdW  Elec       q    Type
REMARK                         _______ _______ _______ _____ _____    ______ ____
ROOT
ATOM      1  N   UNL     1     -32.676 -11.462  16.984  0.00  0.00    -0.305 N 
ATOM      2  C   UNL     1     -33.688 -11.768  16.010  0.00  0.00    +0.248 C 
ATOM      3  O   UNL     1     -34.900 -11.808  16.357  0.00  0.00    -0.270 OA
ATOM      4  H   UNL     1     -31.673 -11.573  16.711  0.00  0.00    +0.150 HD
ENDROOT
BRANCH   2   5
ATOM      5  C   UNL     1     -33.327 -12.104  14.611  0.00  0.00    +0.078 A 
ATOM      6  C   UNL     1     -34.201 -11.725  13.578  0.00  0.00    +0.017 A 
ATOM      7  C   UNL     1     -33.917 -12.050  12.251  0.00  0.00    +0.001 A 
ATOM      8  C   UNL     1     -32.753 -12.750  11.938  0.00  0.00    +0.004 A 
ATOM      9  C   UNL     1     -31.863 -13.117  12.948  0.00  0.00    +0.046 A 
ATOM     10  C   UNL     1     -32.131 -12.788  14.294  0.00  0.00    +0.133 A 
BRANCH  10  11
ATOM     11  O   UNL     1     -31.223 -13.093  15.322  0.00  0.00    -0.482 OA
BRANCH  11  12
ATOM     12  C   UNL     1     -30.559 -14.343  15.509  0.00  0.00    +0.324 C 
BRANCH  12  13
ATOM     13  C   UNL     1     -29.641 -14.273  16.690  0.00  0.00    +0.248 C 
ATOM     14  N   UNL     1     -30.071 -14.756  17.963  0.00  0.00    -0.327 N 
ATOM     15  O   UNL     1     -28.487 -13.787  16.563  0.00  0.00    -0.272 OA
ATOM     16  H   UNL     1     -31.030 -15.149  18.085  0.00  0.00    +0.145 HD
ATOM     17  H   UNL     1     -29.431 -14.716  18.786  0.00  0.00    +0.145 HD
ENDBRANCH  12  13
ENDBRANCH  11  12
ENDBRANCH  10  11
ENDBRANCH   2   5
BRANCH   1  18
ATOM     18  C   UNL     1     -32.998 -11.251  18.400  0.00  0.00    +0.101 C 
ATOM     19  C   UNL     1     -32.528 -12.424  19.271  0.00  0.00    +0.033 C 
BRANCH  18  25
ATOM     20  C   UNL     1     -33.232  -6.163  19.352  0.00  0.00    +0.044 C 
ATOM     21  C   UNL     1     -32.548  -7.508  19.390  0.00  0.00    -0.047 A 
ATOM     22  C   UNL     1     -31.287  -7.592  19.997  0.00  0.00    +0.003 A 
ATOM     23  C   UNL     1     -30.615  -8.805  20.067  0.00  0.00    +0.001 A 
ATOM     24  C   UNL     1     -31.194  -9.956  19.546  0.00  0.00    +0.006 A 
ATOM     25  C   UNL     1     -32.460  -9.923  18.932  0.00  0.00    -0.024 A 
ATOM     26  C   UNL     1     -33.134  -8.666  18.807  0.00  0.00    -0.043 A 
ATOM     27  C   UNL     1     -34.487  -8.539  18.138  0.00  0.00    +0.044 C 
ENDBRANCH  18  25
ENDBRANCH   1  18
TORSDOF 6
ENDMDL
MODEL 7
REMARK VINA RESULT:    -4.261      2.838      6.298
REMARK INTER + INTRA:          -7.744
REMARK INTER:                  -6.379
REMARK INTRA:                  -1.366
REMARK UNBOUND:                -1.989
REMARK  Name = 
REMARK  9 active torsions:
REMARK  status: ('A' for Active; 'I' for Inactive)
REMARK    1  A    between atoms: C_1  and  C_2
REMARK    2  A    between atoms: C_6  and  C_9
REMARK    3  A    between atoms: C_7  and  C_8
REMARK    4  A    between atoms: C_9  and  C_10
REMARK    5  A    between atoms: C_9  and  N_11
REMARK    6  A    between atoms: C_12  and  C_14
REMARK    7  A    between atoms: C_19  and  O_20
REMARK    8  A    between atoms: O_20  and  C_21
REMARK    9  A    between atoms: C_21  and  C_22
REMARK                            x       y       z     vdW  Elec       q    Type
REMARK                         _______ _______ _______ _____ _____    ______ ____
ROOT
ATOM      1  N   UNL     1     -31.062 -11.682  17.446  0.00  0.00    -0.305 N 
ATOM      2  C   UNL     1     -30.254 -10.687  18.099  0.00  0.00    +0.248 C 
ATOM      3  O   UNL     1     -29.001 -10.825  18.138  0.00  0.00    -0.270 OA
ATOM      4  H   UNL     1     -32.100 -11.623  17.547  0.00  0.00    +0.150 HD
ENDROOT
BRANCH   2   5
ATOM      5  C   UNL     1     -30.875  -9.528  18.784  0.00  0.00    +0.078 A 
ATOM      6  C   UNL     1     -30.332  -9.096  20.008  0.00  0.00    +0.017 A 
ATOM      7  C   UNL     1     -30.906  -8.031  20.703  0.00  0.00    +0.001 A 
ATOM      8  C   UNL     1     -32.023  -7.379  20.184  0.00  0.00    +0.004 A 
ATOM      9  C   UNL     1     -32.564  -7.781  18.962  0.00  0.00    +0.046 A 
ATOM     10  C   UNL     1     -31.990  -8.850  18.241  0.00  0.00    +0.133 A 
BRANCH  10  11
ATOM     11  O   UNL     1     -32.478  -9.235  16.981  0.00  0.00    -0.482 OA
BRANCH  11  12
ATOM     12  C   UNL     1     -33.851  -9.422  16.637  0.00  0.00    +0.324 C 
BRANCH  12  13
ATOM     13  C   UNL     1     -34.197  -8.619  15.421  0.00  0.00    +0.248 C 
ATOM     14  N   UNL     1     -34.342  -7.202  15.513  0.00  0.00    -0.327 N 
ATOM     15  O   UNL     1     -34.361  -9.193  14.313  0.00  0.00    -0.272 OA
ATOM     16  H   UNL     1     -34.222  -6.715  16.429  0.00  0.00    +0.145 HD
ATOM     17  H   UNL     1     -34.576  -6.639  14.666  0.00  0.00    +0.145 HD
ENDBRANCH  12  13
ENDBRANCH  11  12
ENDBRANCH  10  11
ENDBRANCH   2   5
BRANCH   1  18
ATOM     18  C   UNL     1     -30.481 -12.901  16.871  0.00  0.00    +0.101 C 
ATOM     19  C   UNL     1     -30.847 -14.146  17.689  0.00  0.00    +0.033 C 
BRANCH  18  25
ATOM     20  C   UNL     1     -29.971 -14.994  12.158  0.00  0.00    +0.044 C 
ATOM     21  C   UNL     1     -30.620 -14.062  13.152  0.00  0.00    -0.047 A 
ATOM     22  C   UNL     1     -31.700 -13.280  12.719  0.00  0.00    +0.003 A 
ATOM     23  C   UNL     1     -32.340 -12.411  13.593  0.00  0.00    +0.001 A 
ATOM     24  C   UNL     1     -31.923 -12.317  14.915  0.00  0.00    +0.006 A 
ATOM     25  C   UNL     1     -30.846 -13.085  15.398  0.00  0.00    -0.024 A 
ATOM     26  C   UNL     1     -30.147 -13.941  14.489  0.00  0.00    -0.043 A 
ATOM     27  C   UNL     1     -28.964 -14.782  14.921  0.00  0.00    +0.044 C 
ENDBRANCH  18  25
ENDBRANCH   1  18
TORSDOF 6
ENDMDL
MODEL 8
REMARK VINA RESULT:    -4.237      2.054      6.471
REMARK INTER + INTRA:          -7.713
REMARK INTER:                  -6.952
REMARK INTRA:                  -0.761
REMARK UNBOUND:                -1.989
REMARK  Name = 
REMARK  9 active torsions:
REMARK  status: ('A' for Active; 'I' for Inactive)
REMARK    1  A    between atoms: C_1  and  C_2
REMARK    2  A    between atoms: C_6  and  C_9
REMARK    3  A    between atoms: C_7  and  C_8
REMARK    4  A    between atoms: C_9  and  C_10
REMARK    5  A    between atoms: C_9  and  N_11
REMARK    6  A    between atoms: C_12  and  C_14
REMARK    7  A    between atoms: C_19  and  O_20
REMARK    8  A    between atoms: O_20  and  C_21
REMARK    9  A    between atoms: C_21  and  C_22
REMARK                            x       y       z     vdW  Elec       q    Type
REMARK                         _______ _______ _______ _____ _____    ______ ____
ROOT
ATOM      1  N   UNL     1     -31.356 -11.890  16.781  0.00  0.00    -0.305 N 
ATOM      2  C   UNL     1     -30.370 -11.038  17.388  0.00  0.00    +0.248 C 
ATOM      3  O   UNL     1     -29.150 -11.191  17.105  0.00  0.00    -0.270 OA
ATOM      4  H   UNL     1     -32.338 -11.843  17.133  0.00  0.00    +0.150 HD
ENDROOT
BRANCH   2   5
ATOM      5  C   UNL     1     -30.755 -10.017  18.393  0.00  0.00    +0.078 A 
ATOM      6  C   UNL     1     -31.799  -9.127  18.086  0.00  0.00    +0.017 A 
ATOM      7  C   UNL     1     -32.172  -8.131  18.989  0.00  0.00    +0.001 A 
ATOM      8  C   UNL     1     -31.512  -8.014  20.211  0.00  0.00    +0.004 A 
ATOM      9  C   UNL     1     -30.486  -8.900  20.541  0.00  0.00    +0.046 A 
ATOM     10  C   UNL     1     -30.103  -9.920  19.644  0.00  0.00    +0.133 A 
BRANCH  10  11
ATOM     11  O   UNL     1     -29.115 -10.862  19.976  0.00  0.00    -0.482 OA
BRANCH  11  12
ATOM     12  C   UNL     1     -29.220 -11.862  20.989  0.00  0.00    +0.324 C 
BRANCH  12  13
ATOM     13  C   UNL     1     -29.716 -13.148  20.403  0.00  0.00    +0.248 C 
ATOM     14  N   UNL     1     -28.791 -14.111  19.898  0.00  0.00    -0.327 N 
ATOM     15  O   UNL     1     -30.952 -13.382  20.355  0.00  0.00    -0.272 OA
ATOM     16  H   UNL     1     -27.764 -13.923  19.919  0.00  0.00    +0.145 HD
ATOM     17  H   UNL     1     -29.133 -15.011  19.496  0.00  0.00    +0.145 HD
ENDBRANCH  12  13
ENDBRANCH  11  12
ENDBRANCH  10  11
ENDBRANCH   2   5
BRANCH   1  18
ATOM     18  C   UNL     1     -30.986 -12.989  15.881  0.00  0.00    +0.101 C 
ATOM     19  C   UNL     1     -31.215 -14.359  16.532  0.00  0.00    +0.033 C 
BRANCH  18  25
ATOM     20  C   UNL     1     -34.702 -11.379  12.648  0.00  0.00    +0.044 C 
ATOM     21  C   UNL     1     -33.448 -12.151  12.976  0.00  0.00    -0.047 A 
ATOM     22  C   UNL     1     -32.816 -12.858  11.943  0.00  0.00    +0.003 A 
ATOM     23  C   UNL     1     -31.654 -13.579  12.187  0.00  0.00    +0.001 A 
ATOM     24  C   UNL     1     -31.097 -13.597  13.460  0.00  0.00    +0.006 A 
ATOM     25  C   UNL     1     -31.692 -12.900  14.528  0.00  0.00    -0.024 A 
ATOM     26  C   UNL     1     -32.919 -12.200  14.297  0.00  0.00    -0.043 A 
ATOM     27  C   UNL     1     -33.637 -11.445  15.396  0.00  0.00    +0.044 C 
ENDBRANCH  18  25
ENDBRANCH   1  18
TORSDOF 6
ENDMDL
