MODEL 1
REMARK VINA RESULT:    -4.862      0.000      0.000
REMARK INTER + INTRA:          -8.337
REMARK INTER:                  -6.709
REMARK INTRA:                  -1.627
REMARK UNBOUND:                -1.627
REMARK  Name = 
REMARK  8 active torsions:
REMARK  status: ('A' for Active; 'I' for Inactive)
REMARK    1  A    between atoms: C_1  and  O_2
REMARK    2  A    between atoms: O_2  and  C_3
REMARK    3  A    between atoms: C_6  and  C_9
REMARK    4  A    between atoms: C_9  and  C_10
REMARK    5  A    between atoms: C_9  and  N_14
REMARK    6  A    between atoms: C_10  and  C_11
REMARK    7  A    between atoms: C_11  and  O_13
REMARK    8  A    between atoms: C_15  and  C_17
REMARK                            x       y       z     vdW  Elec       q    Type
REMARK                         _______ _______ _______ _____ _____    ______ ____
ROOT
ATOM      1  C   UNL     1     -30.775 -11.773  18.273  0.00  0.00    +0.114 C 
ENDROOT
BRANCH   1   5
ATOM      2  C   UNL     1     -27.574 -13.335  20.744  0.00  0.00    +0.120 A 
ATOM      3  C   UNL     1     -28.914 -13.468  21.152  0.00  0.00    +0.046 A 
ATOM      4  C   UNL     1     -29.946 -12.963  20.356  0.00  0.00    +0.009 A 
ATOM      5  C   UNL     1     -29.659 -12.311  19.144  0.00  0.00    -0.026 A 
ATOM      6  C   UNL     1     -28.322 -12.188  18.736  0.00  0.00    +0.009 A 
ATOM      7  C   UNL     1     -27.290 -12.694  19.533  0.00  0.00    +0.046 A 
BRANCH   2   9
ATOM      8  C   UNL     1     -25.296 -14.341  20.960  0.00  0.00    +0.277 C 
ATOM      9  O   UNL     1     -26.503 -13.822  21.508  0.00  0.00    -0.495 OA
ENDBRANCH   2   9
ENDBRANCH   1   5
BRANCH   1  10
ATOM     10  N   UNL     1     -30.519 -12.107  16.867  0.00  0.00    -0.304 N 
ATOM     11  C   UNL     1     -30.862 -13.390  16.318  0.00  0.00    +0.247 C 
ATOM     12  O   UNL     1     -31.595 -14.177  16.977  0.00  0.00    -0.270 OA
ATOM     13  H   UNL     1     -30.097 -11.389  16.238  0.00  0.00    +0.150 HD
BRANCH  11  14
ATOM     14  C   UNL     1     -30.392 -13.793  14.974  0.00  0.00    +0.075 A 
ATOM     15  C   UNL     1     -31.282 -13.748  13.886  0.00  0.00    +0.016 A 
ATOM     16  C   UNL     1     -30.859 -14.123  12.608  0.00  0.00    +0.004 A 
ATOM     17  C   UNL     1     -29.547 -14.555  12.403  0.00  0.00    +0.041 A 
ATOM     18  C   UNL     1     -28.657 -14.622  13.478  0.00  0.00    +0.159 A 
ATOM     19  F   UNL     1     -27.391 -15.062  13.277  0.00  0.00    -0.202 F 
ATOM     20  C   UNL     1     -29.074 -14.247  14.761  0.00  0.00    +0.170 A 
ATOM     21  F   UNL     1     -28.204 -14.378  15.796  0.00  0.00    -0.202 F 
ENDBRANCH  11  14
ENDBRANCH   1  10
BRANCH   1  22
ATOM     22  C   UNL     1     -30.906 -10.250  18.468  0.00  0.00    +0.147 C 
BRANCH  22  23
ATOM     23  C   UNL     1     -30.956  -9.536  17.152  0.00  0.00    +0.307 C 
ATOM     24  O   UNL     1     -29.941  -9.518  16.406  0.00  0.00    -0.251 OA
BRANCH  23  25
ATOM     25  O   UNL     1     -32.114  -8.866  16.770  0.00  0.00    -0.481 OA
ATOM     26  H   UNL     1     -33.026  -9.203  17.053  0.00  0.00    +0.295 HD
ENDBRANCH  23  25
ENDBRANCH  22  23
ENDBRANCH   1  22
TORSDOF 7
ENDMDL
MODEL 2
REMARK VINA RESULT:    -4.594      2.738      6.382
REMARK INTER + INTRA:          -7.967
REMARK INTER:                  -7.117
REMARK INTRA:                  -0.850
REMARK UNBOUND:                -1.627
REMARK  Name = 
REMARK  8 active torsions:
REMARK  status: ('A' for Active; 'I' for Inactive)
REMARK    1  A    between atoms: C_1  and  O_2
REMARK    2  A    between atoms: O_2  and  C_3
REMARK    3  A    between atoms: C_6  and  C_9
REMARK    4  A    between atoms: C_9  and  C_10
REMARK    5  A    between atoms: C_9  and  N_14
REMARK    6  A    between atoms: C_10  and  C_11
REMARK    7  A    between atoms: C_11  and  O_13
REMARK    8  A    between atoms: C_15  and  C_17
REMARK                            x       y       z     vdW  Elec       q    Type
REMARK                         _______ _______ _______ _____ _____    ______ ____
ROOT
ATOM      1  C   UNL     1     -30.440 -10.209  17.433  0.00  0.00    +0.114 C 
ENDROOT
BRANCH   1   5
ATOM      2  C   UNL     1     -31.924 -12.673  14.190  0.00  0.00    +0.120 A 
ATOM      3  C   UNL     1     -32.268 -11.310  14.260  0.00  0.00    +0.046 A 
ATOM      4  C   UNL     1     -31.791 -10.516  15.307  0.00  0.00    +0.009 A 
ATOM      5  C   UNL     1     -30.969 -11.069  16.304  0.00  0.00    -0.026 A 
ATOM      6  C   UNL     1     -30.620 -12.426  16.225  0.00  0.00    +0.009 A 
ATOM      7  C   UNL     1     -31.098 -13.220  15.178  0.00  0.00    +0.046 A 
BRANCH   2   9
ATOM      8  C   UNL     1     -33.437 -13.186  12.267  0.00  0.00    +0.277 C 
ATOM      9  O   UNL     1     -32.379 -13.512  13.162  0.00  0.00    -0.495 OA
ENDBRANCH   2   9
ENDBRANCH   1   5
BRANCH   1  10
ATOM     10  N   UNL     1     -29.928 -11.061  18.514  0.00  0.00    -0.304 N 
ATOM     11  C   UNL     1     -28.523 -11.323  18.671  0.00  0.00    +0.247 C 
ATOM     12  O   UNL     1     -27.683 -10.644  18.017  0.00  0.00    -0.270 OA
ATOM     13  H   UNL     1     -30.595 -11.472  19.203  0.00  0.00    +0.150 HD
BRANCH  11  14
ATOM     14  C   UNL     1     -28.043 -12.358  19.611  0.00  0.00    +0.075 A 
ATOM     15  C   UNL     1     -28.960 -13.002  20.461  0.00  0.00    +0.016 A 
ATOM     16  C   UNL     1     -28.529 -13.984  21.357  0.00  0.00    +0.004 A 
ATOM     17  C   UNL     1     -27.178 -14.328  21.422  0.00  0.00    +0.041 A 
ATOM     18  C   UNL     1     -26.252 -13.684  20.597  0.00  0.00    +0.159 A 
ATOM     19  F   UNL     1     -24.938 -14.006  20.679  0.00  0.00    -0.202 F 
ATOM     20  C   UNL     1     -26.677 -12.700  19.696  0.00  0.00    +0.170 A 
ATOM     21  F   UNL     1     -25.748 -12.050  18.949  0.00  0.00    -0.202 F 
ENDBRANCH  11  14
ENDBRANCH   1  10
BRANCH   1  22
ATOM     22  C   UNL     1     -31.551  -9.272  17.944  0.00  0.00    +0.147 C 
BRANCH  22  23
ATOM     23  C   UNL     1     -31.258  -8.787  19.331  0.00  0.00    +0.307 C 
ATOM     24  O   UNL     1     -32.203  -8.470  20.102  0.00  0.00    -0.251 OA
BRANCH  23  25
ATOM     25  O   UNL     1     -29.940  -8.657  19.756  0.00  0.00    -0.481 OA
ATOM     26  H   UNL     1     -29.721  -8.510  20.734  0.00  0.00    +0.295 HD
ENDBRANCH  23  25
ENDBRANCH  22  23
ENDBRANCH   1  22
TORSDOF 7
ENDMDL
MODEL 3
REMARK VINA RESULT:    -4.566      2.154      2.581
REMARK INTER + INTRA:          -7.928
REMARK INTER:                  -6.936
REMARK INTRA:                  -0.992
REMARK UNBOUND:                -1.627
REMARK  Name = 
REMARK  8 active torsions:
REMARK  status: ('A' for Active; 'I' for Inactive)
REMARK    1  A    between atoms: C_1  and  O_2
REMARK    2  A    between atoms: O_2  and  C_3
REMARK    3  A    between atoms: C_6  and  C_9
REMARK    4  A    between atoms: C_9  and  C_10
REMARK    5  A    between atoms: C_9  and  N_14
REMARK    6  A    between atoms: C_10  and  C_11
REMARK    7  A    between atoms: C_11  and  O_13
REMARK    8  A    between atoms: C_15  and  C_17
REMARK                            x       y       z     vdW  Elec       q    Type
REMARK                         _______ _______ _______ _____ _____    ______ ____
ROOT
ATOM      1  C   UNL     1     -31.141 -10.756  17.872  0.00  0.00    +0.114 C 
ENDROOT
BRANCH   1   5
ATOM      2  C   UNL     1     -27.533 -12.731  19.240  0.00  0.00    +0.120 A 
ATOM      3  C   UNL     1     -28.797 -13.244  19.585  0.00  0.00    +0.046 A 
ATOM      4  C   UNL     1     -29.961 -12.606  19.146  0.00  0.00    +0.009 A 
ATOM      5  C   UNL     1     -29.883 -11.443  18.360  0.00  0.00    -0.026 A 
ATOM      6  C   UNL     1     -28.621 -10.940  18.010  0.00  0.00    +0.009 A 
ATOM      7  C   UNL     1     -27.458 -11.579  18.451  0.00  0.00    +0.046 A 
BRANCH   2   9
ATOM      8  C   UNL     1     -26.234 -14.248  20.744  0.00  0.00    +0.277 C 
ATOM      9  O   UNL     1     -26.337 -13.333  19.658  0.00  0.00    -0.495 OA
ENDBRANCH   2   9
ENDBRANCH   1   5
BRANCH   1  10
ATOM     10  N   UNL     1     -31.351 -11.047  16.449  0.00  0.00    -0.304 N 
ATOM     11  C   UNL     1     -32.515 -11.750  15.983  0.00  0.00    +0.247 C 
ATOM     12  O   UNL     1     -33.489 -11.935  16.764  0.00  0.00    -0.270 OA
ATOM     13  H   UNL     1     -30.651 -10.717  15.749  0.00  0.00    +0.150 HD
BRANCH  11  14
ATOM     14  C   UNL     1     -32.602 -12.237  14.589  0.00  0.00    +0.075 A 
ATOM     15  C   UNL     1     -33.764 -11.986  13.838  0.00  0.00    +0.016 A 
ATOM     16  C   UNL     1     -33.867 -12.435  12.519  0.00  0.00    +0.004 A 
ATOM     17  C   UNL     1     -32.817 -13.148  11.938  0.00  0.00    +0.041 A 
ATOM     18  C   UNL     1     -31.664 -13.421  12.678  0.00  0.00    +0.159 A 
ATOM     19  F   UNL     1     -30.656 -14.133  12.116  0.00  0.00    -0.202 F 
ATOM     20  C   UNL     1     -31.553 -12.974  14.000  0.00  0.00    +0.170 A 
ATOM     21  F   UNL     1     -30.446 -13.304  14.713  0.00  0.00    -0.202 F 
ENDBRANCH  11  14
ENDBRANCH   1  10
BRANCH   1  22
ATOM     22  C   UNL     1     -31.041  -9.238  18.121  0.00  0.00    +0.147 C 
BRANCH  22  23
ATOM     23  C   UNL     1     -31.034  -8.927  19.586  0.00  0.00    +0.307 C 
ATOM     24  O   UNL     1     -32.049  -9.176  20.289  0.00  0.00    -0.251 OA
BRANCH  23  25
ATOM     25  O   UNL     1     -29.916  -8.333  20.164  0.00  0.00    -0.481 OA
ATOM     26  H   UNL     1     -29.956  -7.384  20.517  0.00  0.00    +0.295 HD
ENDBRANCH  23  25
ENDBRANCH  22  23
ENDBRANCH   1  22
TORSDOF 7
ENDMDL
MODEL 4
REMARK VINA RESULT:    -4.477      2.622      3.100
REMARK INTER + INTRA:          -7.806
REMARK INTER:                  -6.299
REMARK INTRA:                  -1.507
REMARK UNBOUND:                -1.627
REMARK  Name = 
REMARK  8 active torsions:
REMARK  status: ('A' for Active; 'I' for Inactive)
REMARK    1  A    between atoms: C_1  and  O_2
REMARK    2  A    between atoms: O_2  and  C_3
REMARK    3  A    between atoms: C_6  and  C_9
REMARK    4  A    between atoms: C_9  and  C_10
REMARK    5  A    between atoms: C_9  and  N_14
REMARK    6  A    between atoms: C_10  and  C_11
REMARK    7  A    between atoms: C_11  and  O_13
REMARK    8  A    between atoms: C_15  and  C_17
REMARK                            x       y       z     vdW  Elec       q    Type
REMARK                         _______ _______ _______ _____ _____    ______ ____
ROOT
ATOM      1  C   UNL     1     -31.427 -10.958  18.322  0.00  0.00    +0.114 C 
ENDROOT
BRANCH   1   5
ATOM      2  C   UNL     1     -27.588 -12.690  19.347  0.00  0.00    +0.120 A 
ATOM      3  C   UNL     1     -28.769 -13.188  19.928  0.00  0.00    +0.046 A 
ATOM      4  C   UNL     1     -30.007 -12.629  19.599  0.00  0.00    +0.009 A 
ATOM      5  C   UNL     1     -30.087 -11.559  18.690  0.00  0.00    -0.026 A 
ATOM      6  C   UNL     1     -28.908 -11.071  18.106  0.00  0.00    +0.009 A 
ATOM      7  C   UNL     1     -27.671 -11.631  18.437  0.00  0.00    +0.046 A 
BRANCH   2   9
ATOM      8  C   UNL     1     -26.044 -14.057  20.761  0.00  0.00    +0.277 C 
ATOM      9  O   UNL     1     -26.322 -13.214  19.647  0.00  0.00    -0.495 OA
ENDBRANCH   2   9
ENDBRANCH   1   5
BRANCH   1  10
ATOM     10  N   UNL     1     -31.670 -11.118  16.883  0.00  0.00    -0.304 N 
ATOM     11  C   UNL     1     -32.314 -12.286  16.348  0.00  0.00    +0.247 C 
ATOM     12  O   UNL     1     -32.886 -13.097  17.127  0.00  0.00    -0.270 OA
ATOM     13  H   UNL     1     -31.389 -10.355  16.227  0.00  0.00    +0.150 HD
BRANCH  11  14
ATOM     14  C   UNL     1     -32.343 -12.539  14.891  0.00  0.00    +0.075 A 
ATOM     15  C   UNL     1     -31.276 -13.224  14.285  0.00  0.00    +0.016 A 
ATOM     16  C   UNL     1     -31.283 -13.475  12.910  0.00  0.00    +0.004 A 
ATOM     17  C   UNL     1     -32.350 -13.037  12.124  0.00  0.00    +0.041 A 
ATOM     18  C   UNL     1     -33.409 -12.338  12.709  0.00  0.00    +0.159 A 
ATOM     19  F   UNL     1     -34.432 -11.895  11.938  0.00  0.00    -0.202 F 
ATOM     20  C   UNL     1     -33.409 -12.084  14.086  0.00  0.00    +0.170 A 
ATOM     21  F   UNL     1     -34.422 -11.352  14.618  0.00  0.00    -0.202 F 
ENDBRANCH  11  14
ENDBRANCH   1  10
BRANCH   1  22
ATOM     22  C   UNL     1     -31.468  -9.473  18.731  0.00  0.00    +0.147 C 
BRANCH  22  23
ATOM     23  C   UNL     1     -32.661  -8.780  18.145  0.00  0.00    +0.307 C 
ATOM     24  O   UNL     1     -33.568  -8.340  18.901  0.00  0.00    -0.251 OA
BRANCH  23  25
ATOM     25  O   UNL     1     -32.781  -8.653  16.766  0.00  0.00    -0.481 OA
ATOM     26  H   UNL     1     -33.248  -9.365  16.217  0.00  0.00    +0.295 HD
ENDBRANCH  23  25
ENDBRANCH  22  23
ENDBRANCH   1  22
TORSDOF 7
ENDMDL
MODEL 5
REMARK VINA RESULT:    -4.446      1.605      1.939
REMARK INTER + INTRA:          -7.763
REMARK INTER:                  -6.418
REMARK INTRA:                  -1.345
REMARK UNBOUND:                -1.627
REMARK  Name = 
REMARK  8 active torsions:
REMARK  status: ('A' for Active; 'I' for Inactive)
REMARK    1  A    between atoms: C_1  and  O_2
REMARK    2  A    between atoms: O_2  and  C_3
REMARK    3  A    between atoms: C_6  and  C_9
REMARK    4  A    between atoms: C_9  and  C_10
REMARK    5  A    between atoms: C_9  and  N_14
REMARK    6  A    between atoms: C_10  and  C_11
REMARK    7  A    between atoms: C_11  and  O_13
REMARK    8  A    between atoms: C_15  and  C_17
REMARK                            x       y       z     vdW  Elec       q    Type
REMARK                         _______ _______ _______ _____ _____    ______ ____
ROOT
ATOM      1  C   UNL     1     -30.861 -12.356  18.902  0.00  0.00    +0.114 C 
ENDROOT
BRANCH   1   5
ATOM      2  C   UNL     1     -27.276 -13.319  21.140  0.00  0.00    +0.120 A 
ATOM      3  C   UNL     1     -28.478 -13.036  21.814  0.00  0.00    +0.046 A 
ATOM      4  C   UNL     1     -29.634 -12.724  21.092  0.00  0.00    +0.009 A 
ATOM      5  C   UNL     1     -29.608 -12.683  19.688  0.00  0.00    -0.026 A 
ATOM      6  C   UNL     1     -28.409 -12.974  19.019  0.00  0.00    +0.009 A 
ATOM      7  C   UNL     1     -27.254 -13.286  19.742  0.00  0.00    +0.046 A 
BRANCH   2   9
ATOM      8  C   UNL     1     -25.150 -14.613  21.383  0.00  0.00    +0.277 C 
ATOM      9  O   UNL     1     -26.089 -13.635  21.818  0.00  0.00    -0.495 OA
ENDBRANCH   2   9
ENDBRANCH   1   5
BRANCH   1  10
ATOM     10  N   UNL     1     -30.621 -12.564  17.468  0.00  0.00    -0.304 N 
ATOM     11  C   UNL     1     -30.979 -13.791  16.811  0.00  0.00    +0.247 C 
ATOM     12  O   UNL     1     -31.710 -14.630  17.405  0.00  0.00    -0.270 OA
ATOM     13  H   UNL     1     -30.202 -11.795  16.901  0.00  0.00    +0.150 HD
BRANCH  11  14
ATOM     14  C   UNL     1     -30.526 -14.075  15.431  0.00  0.00    +0.075 A 
ATOM     15  C   UNL     1     -29.322 -14.773  15.227  0.00  0.00    +0.016 A 
ATOM     16  C   UNL     1     -28.876 -15.053  13.932  0.00  0.00    +0.004 A 
ATOM     17  C   UNL     1     -29.619 -14.631  12.828  0.00  0.00    +0.041 A 
ATOM     18  C   UNL     1     -30.807 -13.920  13.017  0.00  0.00    +0.159 A 
ATOM     19  F   UNL     1     -31.514 -13.493  11.941  0.00  0.00    -0.202 F 
ATOM     20  C   UNL     1     -31.261 -13.637  14.310  0.00  0.00    +0.170 A 
ATOM     21  F   UNL     1     -32.387 -12.894  14.461  0.00  0.00    -0.202 F 
ENDBRANCH  11  14
ENDBRANCH   1  10
BRANCH   1  22
ATOM     22  C   UNL     1     -31.298 -10.907  19.188  0.00  0.00    +0.147 C 
BRANCH  22  23
ATOM     23  C   UNL     1     -30.340  -9.922  18.589  0.00  0.00    +0.307 C 
ATOM     24  O   UNL     1     -29.644  -9.185  19.337  0.00  0.00    -0.251 OA
BRANCH  23  25
ATOM     25  O   UNL     1     -30.245  -9.800  17.207  0.00  0.00    -0.481 OA
ATOM     26  H   UNL     1     -29.469  -9.306  16.781  0.00  0.00    +0.295 HD
ENDBRANCH  23  25
ENDBRANCH  22  23
ENDBRANCH   1  22
TORSDOF 7
ENDMDL
MODEL 6
REMARK VINA RESULT:    -4.358      2.648      6.461
REMARK INTER + INTRA:          -7.641
REMARK INTER:                  -6.247
REMARK INTRA:                  -1.393
REMARK UNBOUND:                -1.627
REMARK  Name = 
REMARK  8 active torsions:
REMARK  status: ('A' for Active; 'I' for Inactive)
REMARK    1  A    between atoms: C_1  and  O_2
REMARK    2  A    between atoms: O_2  and  C_3
REMARK    3  A    between atoms: C_6  and  C_9
REMARK    4  A    between atoms: C_9  and  C_10
REMARK    5  A    between atoms: C_9  and  N_14
REMARK    6  A    between atoms: C_10  and  C_11
REMARK    7  A    between atoms: C_11  and  O_13
REMARK    8  A    between atoms: C_15  and  C_17
REMARK                            x       y       z     vdW  Elec       q    Type
REMARK                         _______ _______ _______ _____ _____    ______ ____
ROOT
ATOM      1  C   UNL     1     -31.243 -10.964  17.982  0.00  0.00    +0.114 C 
ENDROOT
BRANCH   1   5
ATOM      2  C   UNL     1     -31.724 -12.857  14.112  0.00  0.00    +0.120 A 
ATOM      3  C   UNL     1     -31.178 -13.577  15.191  0.00  0.00    +0.046 A 
ATOM      4  C   UNL     1     -31.022 -12.966  16.439  0.00  0.00    +0.009 A 
ATOM      5  C   UNL     1     -31.401 -11.626  16.629  0.00  0.00    -0.026 A 
ATOM      6  C   UNL     1     -31.953 -10.914  15.553  0.00  0.00    +0.009 A 
ATOM      7  C   UNL     1     -32.109 -11.526  14.306  0.00  0.00    +0.046 A 
BRANCH   2   9
ATOM      8  C   UNL     1     -32.941 -13.066  11.938  0.00  0.00    +0.277 C 
ATOM      9  O   UNL     1     -31.900 -13.423  12.841  0.00  0.00    -0.495 OA
ENDBRANCH   2   9
ENDBRANCH   1   5
BRANCH   1  10
ATOM     10  N   UNL     1     -30.487 -11.841  18.884  0.00  0.00    -0.304 N 
ATOM     11  C   UNL     1     -29.164 -11.506  19.334  0.00  0.00    +0.247 C 
ATOM     12  O   UNL     1     -28.713 -10.344  19.141  0.00  0.00    -0.270 OA
ATOM     13  H   UNL     1     -30.927 -12.722  19.230  0.00  0.00    +0.150 HD
BRANCH  11  14
ATOM     14  C   UNL     1     -28.330 -12.497  20.048  0.00  0.00    +0.075 A 
ATOM     15  C   UNL     1     -28.871 -13.199  21.140  0.00  0.00    +0.016 A 
ATOM     16  C   UNL     1     -28.101 -14.142  21.829  0.00  0.00    +0.004 A 
ATOM     17  C   UNL     1     -26.782 -14.386  21.442  0.00  0.00    +0.041 A 
ATOM     18  C   UNL     1     -26.226 -13.683  20.371  0.00  0.00    +0.159 A 
ATOM     19  F   UNL     1     -24.938 -13.909  20.013  0.00  0.00    -0.202 F 
ATOM     20  C   UNL     1     -26.991 -12.738  19.675  0.00  0.00    +0.170 A 
ATOM     21  F   UNL     1     -26.406 -12.029  18.676  0.00  0.00    -0.202 F 
ENDBRANCH  11  14
ENDBRANCH   1  10
BRANCH   1  22
ATOM     22  C   UNL     1     -32.629 -10.626  18.566  0.00  0.00    +0.147 C 
BRANCH  22  23
ATOM     23  C   UNL     1     -32.912 -11.435  19.795  0.00  0.00    +0.307 C 
ATOM     24  O   UNL     1     -33.215 -10.859  20.874  0.00  0.00    -0.251 OA
BRANCH  23  25
ATOM     25  O   UNL     1     -32.807 -12.822  19.752  0.00  0.00    -0.481 OA
ATOM     26  H   UNL     1     -33.593 -13.410  20.004  0.00  0.00    +0.295 HD
ENDBRANCH  23  25
ENDBRANCH  22  23
ENDBRANCH   1  22
TORSDOF 7
ENDMDL
MODEL 7
REMARK VINA RESULT:    -4.312      2.626      4.984
REMARK INTER + INTRA:          -7.578
REMARK INTER:                  -6.110
REMARK INTRA:                  -1.468
REMARK UNBOUND:                -1.627
REMARK  Name = 
REMARK  8 active torsions:
REMARK  status: ('A' for Active; 'I' for Inactive)
REMARK    1  A    between atoms: C_1  and  O_2
REMARK    2  A    between atoms: O_2  and  C_3
REMARK    3  A    between atoms: C_6  and  C_9
REMARK    4  A    between atoms: C_9  and  C_10
REMARK    5  A    between atoms: C_9  and  N_14
REMARK    6  A    between atoms: C_10  and  C_11
REMARK    7  A    between atoms: C_11  and  O_13
REMARK    8  A    between atoms: C_15  and  C_17
REMARK                            x       y       z     vdW  Elec       q    Type
REMARK                         _______ _______ _______ _____ _____    ______ ____
ROOT
ATOM      1  C   UNL     1     -29.107 -12.396  19.868  0.00  0.00    +0.114 C 
ENDROOT
BRANCH   1   5
ATOM      2  C   UNL     1     -31.101  -8.789  21.211  0.00  0.00    +0.120 A 
ATOM      3  C   UNL     1     -30.572  -8.865  19.909  0.00  0.00    +0.046 A 
ATOM      4  C   UNL     1     -29.928 -10.027  19.477  0.00  0.00    +0.009 A 
ATOM      5  C   UNL     1     -29.794 -11.131  20.336  0.00  0.00    -0.026 A 
ATOM      6  C   UNL     1     -30.332 -11.056  21.631  0.00  0.00    +0.009 A 
ATOM      7  C   UNL     1     -30.976  -9.892  22.062  0.00  0.00    +0.046 A 
BRANCH   2   9
ATOM      8  C   UNL     1     -31.803  -6.399  21.007  0.00  0.00    +0.277 C 
ATOM      9  O   UNL     1     -31.754  -7.645  21.693  0.00  0.00    -0.495 OA
ENDBRANCH   2   9
ENDBRANCH   1   5
BRANCH   1  10
ATOM     10  N   UNL     1     -29.766 -12.906  18.658  0.00  0.00    -0.304 N 
ATOM     11  C   UNL     1     -29.037 -13.149  17.444  0.00  0.00    +0.247 C 
ATOM     12  O   UNL     1     -27.775 -13.142  17.459  0.00  0.00    -0.270 OA
ATOM     13  H   UNL     1     -30.787 -13.121  18.682  0.00  0.00    +0.150 HD
BRANCH  11  14
ATOM     14  C   UNL     1     -29.744 -13.438  16.177  0.00  0.00    +0.075 A 
ATOM     15  C   UNL     1     -29.464 -14.628  15.483  0.00  0.00    +0.016 A 
ATOM     16  C   UNL     1     -30.121 -14.922  14.285  0.00  0.00    +0.004 A 
ATOM     17  C   UNL     1     -31.057 -14.028  13.762  0.00  0.00    +0.041 A 
ATOM     18  C   UNL     1     -31.332 -12.833  14.432  0.00  0.00    +0.159 A 
ATOM     19  F   UNL     1     -32.227 -11.958  13.909  0.00  0.00    -0.202 F 
ATOM     20  C   UNL     1     -30.678 -12.532  15.633  0.00  0.00    +0.170 A 
ATOM     21  F   UNL     1     -30.922 -11.338  16.231  0.00  0.00    -0.202 F 
ENDBRANCH  11  14
ENDBRANCH   1  10
BRANCH   1  22
ATOM     22  C   UNL     1     -29.120 -13.449  20.993  0.00  0.00    +0.147 C 
BRANCH  22  23
ATOM     23  C   UNL     1     -27.894 -14.310  20.946  0.00  0.00    +0.307 C 
ATOM     24  O   UNL     1     -27.576 -15.010  21.944  0.00  0.00    -0.251 OA
BRANCH  23  25
ATOM     25  O   UNL     1     -27.089 -14.309  19.811  0.00  0.00    -0.481 OA
ATOM     26  H   UNL     1     -27.107 -15.085  19.161  0.00  0.00    +0.295 HD
ENDBRANCH  23  25
ENDBRANCH  22  23
ENDBRANCH   1  22
TORSDOF 7
ENDMDL
MODEL 8
REMARK VINA RESULT:    -4.269      2.857      4.785
REMARK INTER + INTRA:          -7.518
REMARK INTER:                  -6.001
REMARK INTRA:                  -1.517
REMARK UNBOUND:                -1.627
REMARK  Name = 
REMARK  8 active torsions:
REMARK  status: ('A' for Active; 'I' for Inactive)
REMARK    1  A    between atoms: C_1  and  O_2
REMARK    2  A    between atoms: O_2  and  C_3
REMARK    3  A    between atoms: C_6  and  C_9
REMARK    4  A    between atoms: C_9  and  C_10
REMARK    5  A    between atoms: C_9  and  N_14
REMARK    6  A    between atoms: C_10  and  C_11
REMARK    7  A    between atoms: C_11  and  O_13
REMARK    8  A    between atoms: C_15  and  C_17
REMARK                            x       y       z     vdW  Elec       q    Type
REMARK                         _______ _______ _______ _____ _____    ______ ____
ROOT
ATOM      1  C   UNL     1     -29.863 -11.377  17.742  0.00  0.00    +0.114 C 
ENDROOT
BRANCH   1   5
ATOM      2  C   UNL     1     -32.680 -10.360  20.877  0.00  0.00    +0.120 A 
ATOM      3  C   UNL     1     -31.710  -9.427  20.464  0.00  0.00    +0.046 A 
ATOM      4  C   UNL     1     -30.801  -9.756  19.454  0.00  0.00    +0.009 A 
ATOM      5  C   UNL     1     -30.839 -11.021  18.845  0.00  0.00    -0.026 A 
ATOM      6  C   UNL     1     -31.813 -11.946  19.252  0.00  0.00    +0.009 A 
ATOM      7  C   UNL     1     -32.722 -11.616  20.262  0.00  0.00    +0.046 A 
BRANCH   2   9
ATOM      8  C   UNL     1     -34.377  -8.881  21.965  0.00  0.00    +0.277 C 
ATOM      9  O   UNL     1     -33.612 -10.080  21.886  0.00  0.00    -0.495 OA
ENDBRANCH   2   9
ENDBRANCH   1   5
BRANCH   1  10
ATOM     10  N   UNL     1     -30.591 -11.884  16.573  0.00  0.00    -0.304 N 
ATOM     11  C   UNL     1     -31.196 -11.000  15.615  0.00  0.00    +0.247 C 
ATOM     12  O   UNL     1     -30.922  -9.769  15.639  0.00  0.00    -0.270 OA
ATOM     13  H   UNL     1     -30.655 -12.914  16.415  0.00  0.00    +0.150 HD
BRANCH  11  14
ATOM     14  C   UNL     1     -32.116 -11.517  14.578  0.00  0.00    +0.075 A 
ATOM     15  C   UNL     1     -33.401 -10.960  14.451  0.00  0.00    +0.016 A 
ATOM     16  C   UNL     1     -34.286 -11.432  13.477  0.00  0.00    +0.004 A 
ATOM     17  C   UNL     1     -33.902 -12.469  12.626  0.00  0.00    +0.041 A 
ATOM     18  C   UNL     1     -32.635 -13.045  12.753  0.00  0.00    +0.159 A 
ATOM     19  F   UNL     1     -32.275 -14.067  11.938  0.00  0.00    -0.202 F 
ATOM     20  C   UNL     1     -31.743 -12.577  13.725  0.00  0.00    +0.170 A 
ATOM     21  F   UNL     1     -30.541 -13.193  13.863  0.00  0.00    -0.202 F 
ENDBRANCH  11  14
ENDBRANCH   1  10
BRANCH   1  22
ATOM     22  C   UNL     1     -28.845 -12.413  18.256  0.00  0.00    +0.147 C 
BRANCH  22  23
ATOM     23  C   UNL     1     -28.965 -13.708  17.511  0.00  0.00    +0.307 C 
ATOM     24  O   UNL     1     -28.291 -13.898  16.463  0.00  0.00    -0.251 OA
BRANCH  23  25
ATOM     25  O   UNL     1     -29.845 -14.687  17.960  0.00  0.00    -0.481 OA
ATOM     26  H   UNL     1     -29.550 -15.382  18.635  0.00  0.00    +0.295 HD
ENDBRANCH  23  25
ENDBRANCH  22  23
ENDBRANCH   1  22
TORSDOF 7
ENDMDL
MODEL 9
REMARK VINA RESULT:    -4.195      3.602      6.406
REMARK INTER + INTRA:          -7.416
REMARK INTER:                  -6.167
REMARK INTRA:                  -1.249
REMARK UNBOUND:                -1.627
REMARK  Name = 
REMARK  8 active torsions:
REMARK  status: ('A' for Active; 'I' for Inactive)
REMARK    1  A    between atoms: C_1  and  O_2
REMARK    2  A    between atoms: O_2  and  C_3
REMARK    3  A    between atoms: C_6  and  C_9
REMARK    4  A    between atoms: C_9  and  C_10
REMARK    5  A    between atoms: C_9  and  N_14
REMARK    6  A    between atoms: C_10  and  C_11
REMARK    7  A    between atoms: C_11  and  O_13
REMARK    8  A    between atoms: C_15  and  C_17
REMARK                            x       y       z     vdW  Elec       q    Type
REMARK                         _______ _______ _______ _____ _____    ______ ____
ROOT
ATOM      1  C   UNL     1     -31.358 -13.413  16.956  0.00  0.00    +0.114 C 
ENDROOT
BRANCH   1   5
ATOM      2  C   UNL     1     -29.434 -14.636  13.269  0.00  0.00    +0.120 A 
ATOM      3  C   UNL     1     -30.634 -13.902  13.234  0.00  0.00    +0.046 A 
ATOM      4  C   UNL     1     -31.255 -13.510  14.422  0.00  0.00    +0.009 A 
ATOM      5  C   UNL     1     -30.694 -13.847  15.666  0.00  0.00    -0.026 A 
ATOM      6  C   UNL     1     -29.492 -14.571  15.698  0.00  0.00    +0.009 A 
ATOM      7  C   UNL     1     -28.872 -14.964  14.508  0.00  0.00    +0.046 A 
BRANCH   2   9
ATOM      8  C   UNL     1     -27.359 -15.057  11.940  0.00  0.00    +0.277 C 
ATOM      9  O   UNL     1     -28.773 -15.056  12.105  0.00  0.00    -0.495 OA
ENDBRANCH   2   9
ENDBRANCH   1   5
BRANCH   1  10
ATOM     10  N   UNL     1     -31.913 -12.063  16.804  0.00  0.00    -0.304 N 
ATOM     11  C   UNL     1     -33.306 -11.842  16.527  0.00  0.00    +0.247 C 
ATOM     12  O   UNL     1     -34.123 -12.797  16.631  0.00  0.00    -0.270 OA
ATOM     13  H   UNL     1     -31.288 -11.235  16.923  0.00  0.00    +0.150 HD
BRANCH  11  14
ATOM     14  C   UNL     1     -33.803 -10.501  16.150  0.00  0.00    +0.075 A 
ATOM     15  C   UNL     1     -34.008  -9.532  17.148  0.00  0.00    +0.016 A 
ATOM     16  C   UNL     1     -34.476  -8.257  16.815  0.00  0.00    +0.004 A 
ATOM     17  C   UNL     1     -34.753  -7.939  15.484  0.00  0.00    +0.041 A 
ATOM     18  C   UNL     1     -34.571  -8.898  14.484  0.00  0.00    +0.159 A 
ATOM     19  F   UNL     1     -34.863  -8.591  13.196  0.00  0.00    -0.202 F 
ATOM     20  C   UNL     1     -34.102 -10.176  14.811  0.00  0.00    +0.170 A 
ATOM     21  F   UNL     1     -33.991 -11.105  13.826  0.00  0.00    -0.202 F 
ENDBRANCH  11  14
ENDBRANCH   1  10
BRANCH   1  22
ATOM     22  C   UNL     1     -30.344 -13.471  18.115  0.00  0.00    +0.147 C 
BRANCH  22  23
ATOM     23  C   UNL     1     -30.991 -13.123  19.421  0.00  0.00    +0.307 C 
ATOM     24  O   UNL     1     -31.625 -12.041  19.542  0.00  0.00    -0.251 OA
BRANCH  23  25
ATOM     25  O   UNL     1     -30.862 -13.980  20.509  0.00  0.00    -0.481 OA
ATOM     26  H   UNL     1     -30.418 -13.670  21.365  0.00  0.00    +0.295 HD
ENDBRANCH  23  25
ENDBRANCH  22  23
ENDBRANCH   1  22
TORSDOF 7
ENDMDL
