MODEL 1
REMARK VINA RESULT:    -3.821      0.000      0.000
REMARK INTER + INTRA:          -5.196
REMARK INTER:                  -4.714
REMARK INTRA:                  -0.482
REMARK UNBOUND:                -0.482
REMARK  Name = 
REMARK  6 active torsions:
REMARK  status: ('A' for Active; 'I' for Inactive)
REMARK    1  A    between atoms: C_1  and  C_2
REMARK    2  A    between atoms: C_2  and  C_3
REMARK    3  A    between atoms: C_3  and  C_4
REMARK    4  A    between atoms: C_3  and  N_6
REMARK    5  A    between atoms: C_4  and  C_5
REMARK    6  A    between atoms: C_10  and  N_14
REMARK                            x       y       z     vdW  Elec       q    Type
REMARK                         _______ _______ _______ _____ _____    ______ ____
ROOT
ATOM      1  N   UNL     1     -31.238 -13.089  20.218  0.00  0.00    -0.311 N 
ATOM      2  C   UNL     1     -29.805 -13.113  20.207  0.00  0.00    +0.217 A 
ATOM      3  N   UNL     1     -29.105 -12.341  19.336  0.00  0.00    -0.221 NA
ATOM      4  C   UNL     1     -27.749 -12.356  19.318  0.00  0.00    +0.150 A 
ATOM      5  C   UNL     1     -27.038 -13.166  20.214  0.00  0.00    +0.184 A 
ATOM      6  C   UNL     1     -27.782 -13.982  21.094  0.00  0.00    +0.152 A 
ATOM      7  N   UNL     1     -27.151 -14.915  21.977  0.00  0.00    -0.341 N 
ATOM      8  N   UNL     1     -29.141 -13.925  21.070  0.00  0.00    -0.198 NA
ATOM      9  H   UNL     1     -31.733 -13.684  20.921  0.00  0.00    +0.149 HD
ATOM     10  H   UNL     1     -27.727 -15.445  22.667  0.00  0.00    +0.144 HD
ATOM     11  H   UNL     1     -26.147 -15.180  21.880  0.00  0.00    +0.144 HD
ENDROOT
BRANCH   5  12
ATOM     12  N   UNL     1     -25.602 -13.121  20.229  0.00  0.00    +0.061 N 
ATOM     13  O   UNL     1     -24.938 -12.177  19.481  0.00  0.00    -0.126 OA
ATOM     14  O   UNL     1     -24.960 -13.783  21.071  0.00  0.00    -0.126 OA
ENDBRANCH   5  12
BRANCH   1  15
ATOM     15  C   UNL     1     -32.018 -12.239  19.309  0.00  0.00    +0.073 C 
BRANCH  15  17
ATOM     16  C   UNL     1     -31.572 -13.248  16.999  0.00  0.00    +0.006 C 
ATOM     17  C   UNL     1     -32.577 -13.097  18.141  0.00  0.00    +0.019 C 
ENDBRANCH  15  17
BRANCH  15  18
ATOM     18  C   UNL     1     -33.140 -11.532  20.104  0.00  0.00    +0.019 C 
ATOM     19  C   UNL     1     -32.639 -10.859  21.381  0.00  0.00    +0.006 C 
ENDBRANCH  15  18
ENDBRANCH   1  15
TORSDOF 4
ENDMDL
MODEL 2
REMARK VINA RESULT:    -3.730      2.105      2.478
REMARK INTER + INTRA:          -5.084
REMARK INTER:                  -4.451
REMARK INTRA:                  -0.633
REMARK UNBOUND:                -0.482
REMARK  Name = 
REMARK  6 active torsions:
REMARK  status: ('A' for Active; 'I' for Inactive)
REMARK    1  A    between atoms: C_1  and  C_2
REMARK    2  A    between atoms: C_2  and  C_3
REMARK    3  A    between atoms: C_3  and  C_4
REMARK    4  A    between atoms: C_3  and  N_6
REMARK    5  A    between atoms: C_4  and  C_5
REMARK    6  A    between atoms: C_10  and  N_14
REMARK                            x       y       z     vdW  Elec       q    Type
REMARK                         _______ _______ _______ _____ _____    ______ ____
ROOT
ATOM      1  N   UNL     1     -30.758 -11.835  17.901  0.00  0.00    -0.311 N 
ATOM      2  C   UNL     1     -29.545 -12.216  18.564  0.00  0.00    +0.217 A 
ATOM      3  N   UNL     1     -28.343 -11.757  18.129  0.00  0.00    -0.221 NA
ATOM      4  C   UNL     1     -27.190 -12.111  18.749  0.00  0.00    +0.150 A 
ATOM      5  C   UNL     1     -27.218 -12.954  19.869  0.00  0.00    +0.184 A 
ATOM      6  C   UNL     1     -28.474 -13.443  20.291  0.00  0.00    +0.152 A 
ATOM      7  N   UNL     1     -28.598 -14.385  21.361  0.00  0.00    -0.341 N 
ATOM      8  N   UNL     1     -29.598 -13.053  19.632  0.00  0.00    -0.198 NA
ATOM      9  H   UNL     1     -31.660 -12.197  18.286  0.00  0.00    +0.149 HD
ATOM     10  H   UNL     1     -29.546 -14.665  21.696  0.00  0.00    +0.144 HD
ATOM     11  H   UNL     1     -27.777 -14.902  21.744  0.00  0.00    +0.144 HD
ENDROOT
BRANCH   5  12
ATOM     12  N   UNL     1     -25.996 -13.266  20.556  0.00  0.00    +0.061 N 
ATOM     13  O   UNL     1     -26.028 -13.612  21.887  0.00  0.00    -0.126 OA
ATOM     14  O   UNL     1     -24.938 -13.435  19.915  0.00  0.00    -0.126 OA
ENDBRANCH   5  12
BRANCH   1  15
ATOM     15  C   UNL     1     -30.771 -10.938  16.738  0.00  0.00    +0.073 C 
BRANCH  15  17
ATOM     16  C   UNL     1     -30.795 -12.872  15.061  0.00  0.00    +0.006 C 
ATOM     17  C   UNL     1     -31.519 -11.621  15.560  0.00  0.00    +0.019 C 
ENDBRANCH  15  17
BRANCH  15  18
ATOM     18  C   UNL     1     -31.416  -9.591  17.138  0.00  0.00    +0.019 C 
ATOM     19  C   UNL     1     -32.770  -9.352  16.472  0.00  0.00    +0.006 C 
ENDBRANCH  15  18
ENDBRANCH   1  15
TORSDOF 4
ENDMDL
MODEL 3
REMARK VINA RESULT:    -3.669      3.492      5.225
REMARK INTER + INTRA:          -5.009
REMARK INTER:                  -4.515
REMARK INTRA:                  -0.494
REMARK UNBOUND:                -0.482
REMARK  Name = 
REMARK  6 active torsions:
REMARK  status: ('A' for Active; 'I' for Inactive)
REMARK    1  A    between atoms: C_1  and  C_2
REMARK    2  A    between atoms: C_2  and  C_3
REMARK    3  A    between atoms: C_3  and  C_4
REMARK    4  A    between atoms: C_3  and  N_6
REMARK    5  A    between atoms: C_4  and  C_5
REMARK    6  A    between atoms: C_10  and  N_14
REMARK                            x       y       z     vdW  Elec       q    Type
REMARK                         _______ _______ _______ _____ _____    ______ ____
ROOT
ATOM      1  N   UNL     1     -29.105 -14.016  15.219  0.00  0.00    -0.311 N 
ATOM      2  C   UNL     1     -29.306 -13.755  16.614  0.00  0.00    +0.217 A 
ATOM      3  N   UNL     1     -30.526 -13.931  17.184  0.00  0.00    -0.221 NA
ATOM      4  C   UNL     1     -30.727 -13.687  18.503  0.00  0.00    +0.150 A 
ATOM      5  C   UNL     1     -29.667 -13.258  19.313  0.00  0.00    +0.184 A 
ATOM      6  C   UNL     1     -28.411 -13.054  18.699  0.00  0.00    +0.152 A 
ATOM      7  N   UNL     1     -27.294 -12.523  19.418  0.00  0.00    -0.341 N 
ATOM      8  N   UNL     1     -28.268 -13.316  17.372  0.00  0.00    -0.198 NA
ATOM      9  H   UNL     1     -28.143 -13.886  14.831  0.00  0.00    +0.149 HD
ATOM     10  H   UNL     1     -26.362 -12.459  18.952  0.00  0.00    +0.144 HD
ATOM     11  H   UNL     1     -27.397 -12.081  20.357  0.00  0.00    +0.144 HD
ENDROOT
BRANCH   5  12
ATOM     12  N   UNL     1     -29.877 -13.068  20.721  0.00  0.00    +0.061 N 
ATOM     13  O   UNL     1     -28.871 -13.364  21.611  0.00  0.00    -0.126 OA
ATOM     14  O   UNL     1     -30.876 -12.441  21.131  0.00  0.00    -0.126 OA
ENDBRANCH   5  12
BRANCH   1  15
ATOM     15  C   UNL     1     -30.186 -14.487  14.343  0.00  0.00    +0.073 C 
BRANCH  15  17
ATOM     16  C   UNL     1     -31.739 -13.367  12.644  0.00  0.00    +0.006 C 
ATOM     17  C   UNL     1     -31.177 -13.324  14.065  0.00  0.00    +0.019 C 
ENDBRANCH  15  17
BRANCH  15  18
ATOM     18  C   UNL     1     -29.577 -15.060  13.042  0.00  0.00    +0.019 C 
ATOM     19  C   UNL     1     -28.066 -14.858  12.945  0.00  0.00    +0.006 C 
ENDBRANCH  15  18
ENDBRANCH   1  15
TORSDOF 4
ENDMDL
MODEL 4
REMARK VINA RESULT:    -3.626      3.635      5.306
REMARK INTER + INTRA:          -4.956
REMARK INTER:                  -4.312
REMARK INTRA:                  -0.644
REMARK UNBOUND:                -0.482
REMARK  Name = 
REMARK  6 active torsions:
REMARK  status: ('A' for Active; 'I' for Inactive)
REMARK    1  A    between atoms: C_1  and  C_2
REMARK    2  A    between atoms: C_2  and  C_3
REMARK    3  A    between atoms: C_3  and  C_4
REMARK    4  A    between atoms: C_3  and  N_6
REMARK    5  A    between atoms: C_4  and  C_5
REMARK    6  A    between atoms: C_10  and  N_14
REMARK                            x       y       z     vdW  Elec       q    Type
REMARK                         _______ _______ _______ _____ _____    ______ ____
ROOT
ATOM      1  N   UNL     1     -31.402 -13.827  15.007  0.00  0.00    -0.311 N 
ATOM      2  C   UNL     1     -30.982 -13.172  16.211  0.00  0.00    +0.217 A 
ATOM      3  N   UNL     1     -30.448 -11.923  16.171  0.00  0.00    -0.221 NA
ATOM      4  C   UNL     1     -30.047 -11.295  17.304  0.00  0.00    +0.150 A 
ATOM      5  C   UNL     1     -30.191 -11.921  18.550  0.00  0.00    +0.184 A 
ATOM      6  C   UNL     1     -30.724 -13.229  18.570  0.00  0.00    +0.152 A 
ATOM      7  N   UNL     1     -30.818 -13.989  19.778  0.00  0.00    -0.341 N 
ATOM      8  N   UNL     1     -31.110 -13.810  17.403  0.00  0.00    -0.198 NA
ATOM      9  H   UNL     1     -31.827 -14.778  15.090  0.00  0.00    +0.149 HD
ATOM     10  H   UNL     1     -31.287 -14.921  19.768  0.00  0.00    +0.144 HD
ATOM     11  H   UNL     1     -30.327 -13.705  20.653  0.00  0.00    +0.144 HD
ENDROOT
BRANCH   5  12
ATOM     12  N   UNL     1     -29.825 -11.217  19.748  0.00  0.00    +0.061 N 
ATOM     13  O   UNL     1     -29.457 -11.921  20.871  0.00  0.00    -0.126 OA
ATOM     14  O   UNL     1     -29.631  -9.984  19.720  0.00  0.00    -0.126 OA
ENDBRANCH   5  12
BRANCH   1  15
ATOM     15  C   UNL     1     -31.287 -13.195  13.686  0.00  0.00    +0.073 C 
BRANCH  15  17
ATOM     16  C   UNL     1     -29.294 -14.685  13.087  0.00  0.00    +0.006 C 
ATOM     17  C   UNL     1     -30.686 -14.208  12.673  0.00  0.00    +0.019 C 
ENDBRANCH  15  17
BRANCH  15  18
ATOM     18  C   UNL     1     -32.676 -12.679  13.242  0.00  0.00    +0.019 C 
ATOM     19  C   UNL     1     -33.164 -13.312  11.940  0.00  0.00    +0.006 C 
ENDBRANCH  15  18
ENDBRANCH   1  15
TORSDOF 4
ENDMDL
MODEL 5
REMARK VINA RESULT:    -3.619      3.604      4.830
REMARK INTER + INTRA:          -4.948
REMARK INTER:                  -4.355
REMARK INTRA:                  -0.593
REMARK UNBOUND:                -0.482
REMARK  Name = 
REMARK  6 active torsions:
REMARK  status: ('A' for Active; 'I' for Inactive)
REMARK    1  A    between atoms: C_1  and  C_2
REMARK    2  A    between atoms: C_2  and  C_3
REMARK    3  A    between atoms: C_3  and  C_4
REMARK    4  A    between atoms: C_3  and  N_6
REMARK    5  A    between atoms: C_4  and  C_5
REMARK    6  A    between atoms: C_10  and  N_14
REMARK                            x       y       z     vdW  Elec       q    Type
REMARK                         _______ _______ _______ _____ _____    ______ ____
ROOT
ATOM      1  N   UNL     1     -31.726 -12.889  14.761  0.00  0.00    -0.311 N 
ATOM      2  C   UNL     1     -30.979 -12.451  15.903  0.00  0.00    +0.217 A 
ATOM      3  N   UNL     1     -30.797 -11.127  16.148  0.00  0.00    -0.221 NA
ATOM      4  C   UNL     1     -30.092 -10.703  17.226  0.00  0.00    +0.150 A 
ATOM      5  C   UNL     1     -29.543 -11.630  18.122  0.00  0.00    +0.184 A 
ATOM      6  C   UNL     1     -29.718 -13.002  17.838  0.00  0.00    +0.152 A 
ATOM      7  N   UNL     1     -29.112 -14.024  18.636  0.00  0.00    -0.341 N 
ATOM      8  N   UNL     1     -30.436 -13.370  16.743  0.00  0.00    -0.198 NA
ATOM      9  H   UNL     1     -31.857 -13.917  14.626  0.00  0.00    +0.149 HD
ATOM     10  H   UNL     1     -29.327 -15.027  18.442  0.00  0.00    +0.144 HD
ATOM     11  H   UNL     1     -28.365 -13.815  19.333  0.00  0.00    +0.144 HD
ENDROOT
BRANCH   5  12
ATOM     12  N   UNL     1     -28.856 -11.166  19.296  0.00  0.00    +0.061 N 
ATOM     13  O   UNL     1     -27.555 -11.552  19.526  0.00  0.00    -0.126 OA
ATOM     14  O   UNL     1     -29.344 -10.252  19.993  0.00  0.00    -0.126 OA
ENDBRANCH   5  12
BRANCH   1  15
ATOM     15  C   UNL     1     -32.334 -11.948  13.811  0.00  0.00    +0.073 C 
BRANCH  15  17
ATOM     16  C   UNL     1     -33.560 -13.190  11.938  0.00  0.00    +0.006 C 
ATOM     17  C   UNL     1     -32.251 -12.531  12.374  0.00  0.00    +0.019 C 
ENDBRANCH  15  17
BRANCH  15  18
ATOM     18  C   UNL     1     -33.791 -11.656  14.241  0.00  0.00    +0.019 C 
ATOM     19  C   UNL     1     -34.008 -10.210  14.684  0.00  0.00    +0.006 C 
ENDBRANCH  15  18
ENDBRANCH   1  15
TORSDOF 4
ENDMDL
MODEL 6
REMARK VINA RESULT:    -3.611      4.933      6.731
REMARK INTER + INTRA:          -4.938
REMARK INTER:                  -4.601
REMARK INTRA:                  -0.336
REMARK UNBOUND:                -0.482
REMARK  Name = 
REMARK  6 active torsions:
REMARK  status: ('A' for Active; 'I' for Inactive)
REMARK    1  A    between atoms: C_1  and  C_2
REMARK    2  A    between atoms: C_2  and  C_3
REMARK    3  A    between atoms: C_3  and  C_4
REMARK    4  A    between atoms: C_3  and  N_6
REMARK    5  A    between atoms: C_4  and  C_5
REMARK    6  A    between atoms: C_10  and  N_14
REMARK                            x       y       z     vdW  Elec       q    Type
REMARK                         _______ _______ _______ _____ _____    ______ ____
ROOT
ATOM      1  N   UNL     1     -31.788 -12.089  14.166  0.00  0.00    -0.311 N 
ATOM      2  C   UNL     1     -31.546 -11.277  15.322  0.00  0.00    +0.217 A 
ATOM      3  N   UNL     1     -30.489 -11.529  16.137  0.00  0.00    -0.221 NA
ATOM      4  C   UNL     1     -30.251 -10.768  17.234  0.00  0.00    +0.150 A 
ATOM      5  C   UNL     1     -31.091  -9.690  17.543  0.00  0.00    +0.184 A 
ATOM      6  C   UNL     1     -32.201  -9.459  16.701  0.00  0.00    +0.152 A 
ATOM      7  N   UNL     1     -33.171  -8.447  16.987  0.00  0.00    -0.341 N 
ATOM      8  N   UNL     1     -32.390 -10.254  15.614  0.00  0.00    -0.198 NA
ATOM      9  H   UNL     1     -32.602 -11.843  13.557  0.00  0.00    +0.149 HD
ATOM     10  H   UNL     1     -33.935  -8.254  16.302  0.00  0.00    +0.144 HD
ATOM     11  H   UNL     1     -33.221  -7.971  17.914  0.00  0.00    +0.144 HD
ENDROOT
BRANCH   5  12
ATOM     12  N   UNL     1     -30.789  -8.851  18.669  0.00  0.00    +0.061 N 
ATOM     13  O   UNL     1     -31.746  -7.994  19.163  0.00  0.00    -0.126 OA
ATOM     14  O   UNL     1     -29.751  -9.041  19.337  0.00  0.00    -0.126 OA
ENDBRANCH   5  12
BRANCH   1  15
ATOM     15  C   UNL     1     -30.919 -13.214  13.797  0.00  0.00    +0.073 C 
BRANCH  15  17
ATOM     16  C   UNL     1     -29.614 -14.940  15.164  0.00  0.00    +0.006 C 
ATOM     17  C   UNL     1     -30.979 -14.304  14.902  0.00  0.00    +0.019 C 
ENDBRANCH  15  17
BRANCH  15  18
ATOM     18  C   UNL     1     -31.344 -13.759  12.414  0.00  0.00    +0.019 C 
ATOM     19  C   UNL     1     -32.691 -13.214  11.942  0.00  0.00    +0.006 C 
ENDBRANCH  15  18
ENDBRANCH   1  15
TORSDOF 4
ENDMDL
MODEL 7
REMARK VINA RESULT:    -3.525      3.373      4.714
REMARK INTER + INTRA:          -4.832
REMARK INTER:                  -4.239
REMARK INTRA:                  -0.593
REMARK UNBOUND:                -0.482
REMARK  Name = 
REMARK  6 active torsions:
REMARK  status: ('A' for Active; 'I' for Inactive)
REMARK    1  A    between atoms: C_1  and  C_2
REMARK    2  A    between atoms: C_2  and  C_3
REMARK    3  A    between atoms: C_3  and  C_4
REMARK    4  A    between atoms: C_3  and  N_6
REMARK    5  A    between atoms: C_4  and  C_5
REMARK    6  A    between atoms: C_10  and  N_14
REMARK                            x       y       z     vdW  Elec       q    Type
REMARK                         _______ _______ _______ _____ _____    ______ ____
ROOT
ATOM      1  N   UNL     1     -29.369 -14.307  16.639  0.00  0.00    -0.311 N 
ATOM      2  C   UNL     1     -29.424 -13.219  17.571  0.00  0.00    +0.217 A 
ATOM      3  N   UNL     1     -29.527 -11.937  17.134  0.00  0.00    -0.221 NA
ATOM      4  C   UNL     1     -29.580 -10.900  18.006  0.00  0.00    +0.150 A 
ATOM      5  C   UNL     1     -29.542 -11.135  19.387  0.00  0.00    +0.184 A 
ATOM      6  C   UNL     1     -29.408 -12.471  19.824  0.00  0.00    +0.152 A 
ATOM      7  N   UNL     1     -29.261 -12.805  21.207  0.00  0.00    -0.341 N 
ATOM      8  N   UNL     1     -29.361 -13.472  18.903  0.00  0.00    -0.198 NA
ATOM      9  H   UNL     1     -29.312 -15.278  17.024  0.00  0.00    +0.149 HD
ATOM     10  H   UNL     1     -29.242 -13.807  21.498  0.00  0.00    +0.144 HD
ATOM     11  H   UNL     1     -29.049 -12.086  21.932  0.00  0.00    +0.144 HD
ENDROOT
BRANCH   5  12
ATOM     12  N   UNL     1     -29.667 -10.033  20.301  0.00  0.00    +0.061 N 
ATOM     13  O   UNL     1     -29.975  -8.779  19.825  0.00  0.00    -0.126 OA
ATOM     14  O   UNL     1     -29.712 -10.236  21.532  0.00  0.00    -0.126 OA
ENDBRANCH   5  12
BRANCH   1  15
ATOM     15  C   UNL     1     -29.427 -14.104  15.186  0.00  0.00    +0.073 C 
BRANCH  15  17
ATOM     16  C   UNL     1     -28.492 -14.956  12.960  0.00  0.00    +0.006 C 
ATOM     17  C   UNL     1     -28.426 -15.062  14.484  0.00  0.00    +0.019 C 
ENDBRANCH  15  17
BRANCH  15  18
ATOM     18  C   UNL     1     -30.879 -14.313  14.696  0.00  0.00    +0.019 C 
ATOM     19  C   UNL     1     -31.587 -13.007  14.340  0.00  0.00    +0.006 C 
ENDBRANCH  15  18
ENDBRANCH   1  15
TORSDOF 4
ENDMDL
MODEL 8
REMARK VINA RESULT:    -3.436      5.634      7.235
REMARK INTER + INTRA:          -4.722
REMARK INTER:                  -4.042
REMARK INTRA:                  -0.680
REMARK UNBOUND:                -0.482
REMARK  Name = 
REMARK  6 active torsions:
REMARK  status: ('A' for Active; 'I' for Inactive)
REMARK    1  A    between atoms: C_1  and  C_2
REMARK    2  A    between atoms: C_2  and  C_3
REMARK    3  A    between atoms: C_3  and  C_4
REMARK    4  A    between atoms: C_3  and  N_6
REMARK    5  A    between atoms: C_4  and  C_5
REMARK    6  A    between atoms: C_10  and  N_14
REMARK                            x       y       z     vdW  Elec       q    Type
REMARK                         _______ _______ _______ _____ _____    ______ ____
ROOT
ATOM      1  N   UNL     1     -31.637 -11.978  13.934  0.00  0.00    -0.311 N 
ATOM      2  C   UNL     1     -32.108 -11.643  15.246  0.00  0.00    +0.217 A 
ATOM      3  N   UNL     1     -32.655 -12.592  16.050  0.00  0.00    -0.221 NA
ATOM      4  C   UNL     1     -33.103 -12.285  17.293  0.00  0.00    +0.150 A 
ATOM      5  C   UNL     1     -32.998 -10.975  17.780  0.00  0.00    +0.184 A 
ATOM      6  C   UNL     1     -32.452  -9.997  16.921  0.00  0.00    +0.152 A 
ATOM      7  N   UNL     1     -32.394  -8.615  17.288  0.00  0.00    -0.341 N 
ATOM      8  N   UNL     1     -32.017 -10.361  15.685  0.00  0.00    -0.198 NA
ATOM      9  H   UNL     1     -31.204 -11.219  13.361  0.00  0.00    +0.149 HD
ATOM     10  H   UNL     1     -31.913  -7.933  16.661  0.00  0.00    +0.144 HD
ATOM     11  H   UNL     1     -32.919  -8.234  18.105  0.00  0.00    +0.144 HD
ENDROOT
BRANCH   5  12
ATOM     12  N   UNL     1     -33.416 -10.679  19.122  0.00  0.00    +0.061 N 
ATOM     13  O   UNL     1     -33.095 -11.541  20.146  0.00  0.00    -0.126 OA
ATOM     14  O   UNL     1     -33.875  -9.553  19.406  0.00  0.00    -0.126 OA
ENDBRANCH   5  12
BRANCH   1  15
ATOM     15  C   UNL     1     -31.710 -13.343  13.396  0.00  0.00    +0.073 C 
BRANCH  15  17
ATOM     16  C   UNL     1     -33.733 -12.765  11.938  0.00  0.00    +0.006 C 
ATOM     17  C   UNL     1     -32.304 -13.307  11.961  0.00  0.00    +0.019 C 
ENDBRANCH  15  17
BRANCH  15  18
ATOM     18  C   UNL     1     -30.303 -13.984  13.432  0.00  0.00    +0.019 C 
ATOM     19  C   UNL     1     -30.094 -14.907  14.631  0.00  0.00    +0.006 C 
ENDBRANCH  15  18
ENDBRANCH   1  15
TORSDOF 4
ENDMDL
MODEL 9
REMARK VINA RESULT:    -3.380      2.454      3.774
REMARK INTER + INTRA:          -4.653
REMARK INTER:                  -3.996
REMARK INTRA:                  -0.657
REMARK UNBOUND:                -0.482
REMARK  Name = 
REMARK  6 active torsions:
REMARK  status: ('A' for Active; 'I' for Inactive)
REMARK    1  A    between atoms: C_1  and  C_2
REMARK    2  A    between atoms: C_2  and  C_3
REMARK    3  A    between atoms: C_3  and  C_4
REMARK    4  A    between atoms: C_3  and  N_6
REMARK    5  A    between atoms: C_4  and  C_5
REMARK    6  A    between atoms: C_10  and  N_14
REMARK                            x       y       z     vdW  Elec       q    Type
REMARK                         _______ _______ _______ _____ _____    ______ ____
ROOT
ATOM      1  N   UNL     1     -30.102  -9.935  17.272  0.00  0.00    -0.311 N 
ATOM      2  C   UNL     1     -29.313 -10.884  18.002  0.00  0.00    +0.217 A 
ATOM      3  N   UNL     1     -29.907 -11.844  18.758  0.00  0.00    -0.221 NA
ATOM      4  C   UNL     1     -29.170 -12.746  19.453  0.00  0.00    +0.150 A 
ATOM      5  C   UNL     1     -27.770 -12.713  19.394  0.00  0.00    +0.184 A 
ATOM      6  C   UNL     1     -27.169 -11.692  18.625  0.00  0.00    +0.152 A 
ATOM      7  N   UNL     1     -25.750 -11.513  18.582  0.00  0.00    -0.341 N 
ATOM      8  N   UNL     1     -27.958 -10.815  17.948  0.00  0.00    -0.198 NA
ATOM      9  H   UNL     1     -29.600  -9.229  16.688  0.00  0.00    +0.149 HD
ATOM     10  H   UNL     1     -25.339 -10.798  17.943  0.00  0.00    +0.144 HD
ATOM     11  H   UNL     1     -25.110 -11.987  19.254  0.00  0.00    +0.144 HD
ENDROOT
BRANCH   5  12
ATOM     12  N   UNL     1     -27.004 -13.715  20.081  0.00  0.00    +0.061 N 
ATOM     13  O   UNL     1     -27.631 -14.588  20.940  0.00  0.00    -0.126 OA
ATOM     14  O   UNL     1     -25.822 -13.944  19.748  0.00  0.00    -0.126 OA
ENDBRANCH   5  12
BRANCH   1  15
ATOM     15  C   UNL     1     -31.570  -9.951  17.292  0.00  0.00    +0.073 C 
BRANCH  15  17
ATOM     16  C   UNL     1     -33.487  -9.149  18.788  0.00  0.00    +0.006 C 
ATOM     17  C   UNL     1     -32.091  -8.841  18.246  0.00  0.00    +0.019 C 
ENDBRANCH  15  17
BRANCH  15  18
ATOM     18  C   UNL     1     -32.104  -9.782  15.851  0.00  0.00    +0.019 C 
ATOM     19  C   UNL     1     -31.857 -11.007  14.972  0.00  0.00    +0.006 C 
ENDBRANCH  15  18
ENDBRANCH   1  15
TORSDOF 4
ENDMDL
