MODEL 1
REMARK VINA RESULT:    -4.303      0.000      0.000
REMARK INTER + INTRA:          -6.148
REMARK INTER:                  -5.435
REMARK INTRA:                  -0.713
REMARK UNBOUND:                -0.713
REMARK  Name = 
REMARK  7 active torsions:
REMARK  status: ('A' for Active; 'I' for Inactive)
REMARK    1  A    between atoms: C_1  and  O_2
REMARK    2  A    between atoms: O_2  and  C_3
REMARK    3  A    between atoms: C_5  and  C_22
REMARK    4  A    between atoms: C_8  and  S_9
REMARK    5  A    between atoms: S_9  and  N_12
REMARK    6  A    between atoms: C_19  and  C_20
REMARK    7  A    between atoms: C_22  and  O_24
REMARK                            x       y       z     vdW  Elec       q    Type
REMARK                         _______ _______ _______ _____ _____    ______ ____
ROOT
ATOM      1  S   UNL     1     -30.351 -10.012  17.776  0.00  0.00    +0.064 S 
ATOM      2  O   UNL     1     -29.334  -9.549  16.769  0.00  0.00    -0.153 OA
ATOM      3  O   UNL     1     -30.865  -8.796  18.495  0.00  0.00    -0.153 OA
ENDROOT
BRANCH   1   4
ATOM      4  N   UNL     1     -31.666 -10.812  16.940  0.00  0.00    -0.175 NA
ATOM      5  C   UNL     1     -32.470  -9.809  16.198  0.00  0.00    +0.111 C 
ATOM      6  C   UNL     1     -33.972 -10.139  16.241  0.00  0.00    +0.036 C 
ATOM      7  C   UNL     1     -34.300 -11.624  16.032  0.00  0.00    +0.109 C 
ATOM      8  N   UNL     1     -33.368 -12.243  15.083  0.00  0.00    -0.300 N 
ATOM      9  C   UNL     1     -32.171 -12.886  15.641  0.00  0.00    +0.125 C 
ATOM     10  C   UNL     1     -31.114 -11.849  16.039  0.00  0.00    +0.128 C 
ATOM     11  C   UNL     1     -33.532 -12.021  13.663  0.00  0.00    +0.212 C 
ATOM     12  C   UNL     1     -32.508 -12.476  12.665  0.00  0.00    +0.109 C 
ATOM     13  O   UNL     1     -34.568 -11.442  13.235  0.00  0.00    -0.276 OA
ENDBRANCH   1   4
BRANCH   1  19
ATOM     14  C   UNL     1     -30.243 -11.551  20.087  0.00  0.00    +0.147 A 
ATOM     15  C   UNL     1     -29.596 -12.449  20.959  0.00  0.00    +0.062 A 
ATOM     16  C   UNL     1     -28.294 -12.906  20.689  0.00  0.00    +0.062 A 
ATOM     17  C   UNL     1     -27.638 -12.451  19.536  0.00  0.00    +0.017 A 
ATOM     18  C   UNL     1     -28.272 -11.564  18.666  0.00  0.00    +0.033 A 
ATOM     19  C   UNL     1     -29.573 -11.112  18.928  0.00  0.00    +0.147 A 
BRANCH  14  21
ATOM     20  C   UNL     1     -32.729 -11.862  20.217  0.00  0.00    +0.277 C 
ATOM     21  O   UNL     1     -31.543 -11.082  20.343  0.00  0.00    -0.493 OA
ENDBRANCH  14  21
BRANCH  16  22
ATOM     22  C   UNL     1     -27.621 -13.853  21.606  0.00  0.00    +0.337 C 
ATOM     23  O   UNL     1     -26.435 -13.648  21.981  0.00  0.00    -0.245 OA
BRANCH  22  24
ATOM     24  O   UNL     1     -28.293 -14.985  22.062  0.00  0.00    -0.477 OA
ATOM     25  H   UNL     1     -28.963 -15.464  21.473  0.00  0.00    +0.295 HD
ENDBRANCH  22  24
ENDBRANCH  16  22
ENDBRANCH   1  19
TORSDOF 5
ENDMDL
MODEL 2
REMARK VINA RESULT:    -3.664      2.488      3.894
REMARK INTER + INTRA:          -5.341
REMARK INTER:                  -4.533
REMARK INTRA:                  -0.808
REMARK UNBOUND:                -0.713
REMARK  Name = 
REMARK  7 active torsions:
REMARK  status: ('A' for Active; 'I' for Inactive)
REMARK    1  A    between atoms: C_1  and  O_2
REMARK    2  A    between atoms: O_2  and  C_3
REMARK    3  A    between atoms: C_5  and  C_22
REMARK    4  A    between atoms: C_8  and  S_9
REMARK    5  A    between atoms: S_9  and  N_12
REMARK    6  A    between atoms: C_19  and  C_20
REMARK    7  A    between atoms: C_22  and  O_24
REMARK                            x       y       z     vdW  Elec       q    Type
REMARK                         _______ _______ _______ _____ _____    ______ ____
ROOT
ATOM      1  S   UNL     1     -30.794 -10.258  16.945  0.00  0.00    +0.064 S 
ATOM      2  O   UNL     1     -31.350 -11.069  15.807  0.00  0.00    -0.153 OA
ATOM      3  O   UNL     1     -29.970  -9.149  16.352  0.00  0.00    -0.153 OA
ENDROOT
BRANCH   1   4
ATOM      4  N   UNL     1     -32.118  -9.586  17.874  0.00  0.00    -0.175 NA
ATOM      5  C   UNL     1     -31.616  -8.491  18.740  0.00  0.00    +0.111 C 
ATOM      6  C   UNL     1     -32.315  -8.483  20.111  0.00  0.00    +0.036 C 
ATOM      7  C   UNL     1     -33.830  -8.717  20.050  0.00  0.00    +0.109 C 
ATOM      8  N   UNL     1     -34.411  -8.108  18.848  0.00  0.00    -0.300 N 
ATOM      9  C   UNL     1     -34.527  -8.957  17.655  0.00  0.00    +0.125 C 
ATOM     10  C   UNL     1     -33.175  -9.115  16.950  0.00  0.00    +0.128 C 
ATOM     11  C   UNL     1     -34.644  -6.681  18.804  0.00  0.00    +0.212 C 
ATOM     12  C   UNL     1     -35.062  -5.984  17.543  0.00  0.00    +0.109 C 
ATOM     13  O   UNL     1     -34.508  -5.991  19.852  0.00  0.00    -0.276 OA
ENDBRANCH   1   4
BRANCH   1  19
ATOM     14  C   UNL     1     -30.323 -12.358  18.702  0.00  0.00    +0.147 A 
ATOM     15  C   UNL     1     -29.470 -13.175  19.469  0.00  0.00    +0.062 A 
ATOM     16  C   UNL     1     -28.084 -12.942  19.502  0.00  0.00    +0.062 A 
ATOM     17  C   UNL     1     -27.555 -11.874  18.763  0.00  0.00    +0.017 A 
ATOM     18  C   UNL     1     -28.393 -11.061  17.998  0.00  0.00    +0.033 A 
ATOM     19  C   UNL     1     -29.774 -11.295  17.957  0.00  0.00    +0.147 A 
BRANCH  14  21
ATOM     20  C   UNL     1     -32.603 -12.357  19.749  0.00  0.00    +0.277 C 
ATOM     21  O   UNL     1     -31.711 -12.576  18.660  0.00  0.00    -0.493 OA
ENDBRANCH  14  21
BRANCH  16  22
ATOM     22  C   UNL     1     -27.191 -13.807  20.307  0.00  0.00    +0.337 C 
ATOM     23  O   UNL     1     -26.032 -13.419  20.617  0.00  0.00    -0.245 OA
BRANCH  22  24
ATOM     24  O   UNL     1     -27.624 -15.062  20.727  0.00  0.00    -0.477 OA
ATOM     25  H   UNL     1     -28.585 -15.212  21.010  0.00  0.00    +0.295 HD
ENDBRANCH  22  24
ENDBRANCH  16  22
ENDBRANCH   1  19
TORSDOF 5
ENDMDL
MODEL 3
REMARK VINA RESULT:    -3.621      2.529      7.527
REMARK INTER + INTRA:          -5.287
REMARK INTER:                  -4.728
REMARK INTRA:                  -0.559
REMARK UNBOUND:                -0.713
REMARK  Name = 
REMARK  7 active torsions:
REMARK  status: ('A' for Active; 'I' for Inactive)
REMARK    1  A    between atoms: C_1  and  O_2
REMARK    2  A    between atoms: O_2  and  C_3
REMARK    3  A    between atoms: C_5  and  C_22
REMARK    4  A    between atoms: C_8  and  S_9
REMARK    5  A    between atoms: S_9  and  N_12
REMARK    6  A    between atoms: C_19  and  C_20
REMARK    7  A    between atoms: C_22  and  O_24
REMARK                            x       y       z     vdW  Elec       q    Type
REMARK                         _______ _______ _______ _____ _____    ______ ____
ROOT
ATOM      1  S   UNL     1     -30.790 -13.028  16.564  0.00  0.00    +0.064 S 
ATOM      2  O   UNL     1     -29.808 -13.326  15.463  0.00  0.00    -0.153 OA
ATOM      3  O   UNL     1     -31.636 -14.255  16.762  0.00  0.00    -0.153 OA
ENDROOT
BRANCH   1   4
ATOM      4  N   UNL     1     -29.912 -12.664  18.035  0.00  0.00    -0.175 NA
ATOM      5  C   UNL     1     -30.377 -13.554  19.128  0.00  0.00    +0.111 C 
ATOM      6  C   UNL     1     -30.433 -12.817  20.477  0.00  0.00    +0.036 C 
ATOM      7  C   UNL     1     -29.228 -11.907  20.752  0.00  0.00    +0.109 C 
ATOM      8  N   UNL     1     -27.996 -12.481  20.200  0.00  0.00    -0.300 N 
ATOM      9  C   UNL     1     -27.619 -12.079  18.838  0.00  0.00    +0.125 C 
ATOM     10  C   UNL     1     -28.459 -12.813  17.787  0.00  0.00    +0.128 C 
ATOM     11  C   UNL     1     -27.325 -13.556  20.899  0.00  0.00    +0.212 C 
ATOM     12  C   UNL     1     -26.172 -14.299  20.293  0.00  0.00    +0.109 C 
ATOM     13  O   UNL     1     -27.703 -13.881  22.059  0.00  0.00    -0.276 OA
ENDBRANCH   1   4
BRANCH   1  19
ATOM     14  C   UNL     1     -32.455 -11.635  14.829  0.00  0.00    +0.147 A 
ATOM     15  C   UNL     1     -33.280 -10.541  14.501  0.00  0.00    +0.062 A 
ATOM     16  C   UNL     1     -33.463  -9.479  15.403  0.00  0.00    +0.062 A 
ATOM     17  C   UNL     1     -32.805  -9.515  16.642  0.00  0.00    +0.017 A 
ATOM     18  C   UNL     1     -31.988 -10.596  16.975  0.00  0.00    +0.033 A 
ATOM     19  C   UNL     1     -31.809 -11.661  16.082  0.00  0.00    +0.147 A 
BRANCH  14  21
ATOM     20  C   UNL     1     -32.717 -12.734  12.589  0.00  0.00    +0.277 C 
ATOM     21  O   UNL     1     -32.260 -12.704  13.939  0.00  0.00    -0.493 OA
ENDBRANCH  14  21
BRANCH  16  22
ATOM     22  C   UNL     1     -34.335  -8.334  15.055  0.00  0.00    +0.337 C 
ATOM     23  O   UNL     1     -35.062  -8.372  14.025  0.00  0.00    -0.245 OA
BRANCH  22  24
ATOM     24  O   UNL     1     -34.358  -7.200  15.863  0.00  0.00    -0.477 OA
ATOM     25  H   UNL     1     -34.357  -7.281  16.873  0.00  0.00    +0.295 HD
ENDBRANCH  22  24
ENDBRANCH  16  22
ENDBRANCH   1  19
TORSDOF 5
ENDMDL
MODEL 4
REMARK VINA RESULT:    -3.510      2.535      7.315
REMARK INTER + INTRA:          -5.146
REMARK INTER:                  -4.687
REMARK INTRA:                  -0.459
REMARK UNBOUND:                -0.713
REMARK  Name = 
REMARK  7 active torsions:
REMARK  status: ('A' for Active; 'I' for Inactive)
REMARK    1  A    between atoms: C_1  and  O_2
REMARK    2  A    between atoms: O_2  and  C_3
REMARK    3  A    between atoms: C_5  and  C_22
REMARK    4  A    between atoms: C_8  and  S_9
REMARK    5  A    between atoms: S_9  and  N_12
REMARK    6  A    between atoms: C_19  and  C_20
REMARK    7  A    between atoms: C_22  and  O_24
REMARK                            x       y       z     vdW  Elec       q    Type
REMARK                         _______ _______ _______ _____ _____    ______ ____
ROOT
ATOM      1  S   UNL     1     -30.991 -13.153  16.674  0.00  0.00    +0.064 S 
ATOM      2  O   UNL     1     -30.055 -13.540  15.561  0.00  0.00    -0.153 OA
ATOM      3  O   UNL     1     -31.874 -14.337  16.956  0.00  0.00    -0.153 OA
ENDROOT
BRANCH   1   4
ATOM      4  N   UNL     1     -30.056 -12.753  18.099  0.00  0.00    -0.175 NA
ATOM      5  C   UNL     1     -30.475 -13.615  19.231  0.00  0.00    +0.111 C 
ATOM      6  C   UNL     1     -30.479 -12.845  20.563  0.00  0.00    +0.036 C 
ATOM      7  C   UNL     1     -29.266 -11.927  20.767  0.00  0.00    +0.109 C 
ATOM      8  N   UNL     1     -28.055 -12.514  20.181  0.00  0.00    -0.300 N 
ATOM      9  C   UNL     1     -27.734 -12.145  18.796  0.00  0.00    +0.125 C 
ATOM     10  C   UNL     1     -28.614 -12.906  17.797  0.00  0.00    +0.128 C 
ATOM     11  C   UNL     1     -27.355 -13.571  20.879  0.00  0.00    +0.212 C 
ATOM     12  C   UNL     1     -26.226 -14.328  20.245  0.00  0.00    +0.109 C 
ATOM     13  O   UNL     1     -27.686 -13.867  22.061  0.00  0.00    -0.276 OA
ENDBRANCH   1   4
BRANCH   1  19
ATOM     14  C   UNL     1     -31.907 -10.534  16.823  0.00  0.00    +0.147 A 
ATOM     15  C   UNL     1     -32.686  -9.457  16.357  0.00  0.00    +0.062 A 
ATOM     16  C   UNL     1     -33.530  -9.604  15.243  0.00  0.00    +0.062 A 
ATOM     17  C   UNL     1     -33.594 -10.847  14.597  0.00  0.00    +0.017 A 
ATOM     18  C   UNL     1     -32.824 -11.919  15.050  0.00  0.00    +0.033 A 
ATOM     19  C   UNL     1     -31.976 -11.774  16.156  0.00  0.00    +0.147 A 
BRANCH  14  21
ATOM     20  C   UNL     1     -30.994  -9.258  18.780  0.00  0.00    +0.277 C 
ATOM     21  O   UNL     1     -31.060 -10.404  17.936  0.00  0.00    -0.493 OA
ENDBRANCH  14  21
BRANCH  16  22
ATOM     22  C   UNL     1     -34.343  -8.467  14.755  0.00  0.00    +0.337 C 
ATOM     23  O   UNL     1     -35.058  -8.586  13.723  0.00  0.00    -0.245 OA
BRANCH  22  24
ATOM     24  O   UNL     1     -34.323  -7.250  15.433  0.00  0.00    -0.477 OA
ATOM     25  H   UNL     1     -33.787  -6.467  15.079  0.00  0.00    +0.295 HD
ENDBRANCH  22  24
ENDBRANCH  16  22
ENDBRANCH   1  19
TORSDOF 5
ENDMDL
MODEL 5
REMARK VINA RESULT:    -3.488      2.398      7.220
REMARK INTER + INTRA:          -5.118
REMARK INTER:                  -4.619
REMARK INTRA:                  -0.500
REMARK UNBOUND:                -0.713
REMARK  Name = 
REMARK  7 active torsions:
REMARK  status: ('A' for Active; 'I' for Inactive)
REMARK    1  A    between atoms: C_1  and  O_2
REMARK    2  A    between atoms: O_2  and  C_3
REMARK    3  A    between atoms: C_5  and  C_22
REMARK    4  A    between atoms: C_8  and  S_9
REMARK    5  A    between atoms: S_9  and  N_12
REMARK    6  A    between atoms: C_19  and  C_20
REMARK    7  A    between atoms: C_22  and  O_24
REMARK                            x       y       z     vdW  Elec       q    Type
REMARK                         _______ _______ _______ _____ _____    ______ ____
ROOT
ATOM      1  S   UNL     1     -31.125  -9.597  19.593  0.00  0.00    +0.064 S 
ATOM      2  O   UNL     1     -31.946  -9.650  20.851  0.00  0.00    -0.153 OA
ATOM      3  O   UNL     1     -30.164  -8.448  19.726  0.00  0.00    -0.153 OA
ENDROOT
BRANCH   1   4
ATOM      4  N   UNL     1     -30.239 -11.098  19.419  0.00  0.00    -0.175 NA
ATOM      5  C   UNL     1     -28.833 -10.808  19.041  0.00  0.00    +0.111 C 
ATOM      6  C   UNL     1     -28.290 -11.840  18.037  0.00  0.00    +0.036 C 
ATOM      7  C   UNL     1     -28.666 -13.293  18.356  0.00  0.00    +0.109 C 
ATOM      8  N   UNL     1     -28.703 -13.524  19.805  0.00  0.00    -0.300 N 
ATOM      9  C   UNL     1     -29.996 -13.347  20.480  0.00  0.00    +0.125 C 
ATOM     10  C   UNL     1     -30.321 -11.864  20.684  0.00  0.00    +0.128 C 
ATOM     11  C   UNL     1     -27.468 -13.697  20.539  0.00  0.00    +0.212 C 
ATOM     12  C   UNL     1     -27.437 -13.752  22.038  0.00  0.00    +0.109 C 
ATOM     13  O   UNL     1     -26.379 -13.819  19.913  0.00  0.00    -0.276 OA
ENDBRANCH   1   4
BRANCH   1  19
ATOM     14  C   UNL     1     -33.280  -8.433  18.281  0.00  0.00    +0.147 A 
ATOM     15  C   UNL     1     -34.088  -8.231  17.144  0.00  0.00    +0.062 A 
ATOM     16  C   UNL     1     -33.828  -8.915  15.944  0.00  0.00    +0.062 A 
ATOM     17  C   UNL     1     -32.752  -9.812  15.890  0.00  0.00    +0.017 A 
ATOM     18  C   UNL     1     -31.946 -10.016  17.010  0.00  0.00    +0.033 A 
ATOM     19  C   UNL     1     -32.196  -9.331  18.207  0.00  0.00    +0.147 A 
BRANCH  14  21
ATOM     20  C   UNL     1     -33.380  -6.355  19.683  0.00  0.00    +0.277 C 
ATOM     21  O   UNL     1     -33.526  -7.759  19.489  0.00  0.00    -0.493 OA
ENDBRANCH  14  21
BRANCH  16  22
ATOM     22  C   UNL     1     -34.678  -8.695  14.751  0.00  0.00    +0.337 C 
ATOM     23  O   UNL     1     -35.062  -7.534  14.443  0.00  0.00    -0.245 OA
BRANCH  22  24
ATOM     24  O   UNL     1     -35.062  -9.773  13.957  0.00  0.00    -0.477 OA
ATOM     25  H   UNL     1     -35.006 -10.722  14.306  0.00  0.00    +0.295 HD
ENDBRANCH  22  24
ENDBRANCH  16  22
ENDBRANCH   1  19
TORSDOF 5
ENDMDL
MODEL 6
REMARK VINA RESULT:    -3.395      1.799      2.769
REMARK INTER + INTRA:          -5.001
REMARK INTER:                  -4.670
REMARK INTRA:                  -0.331
REMARK UNBOUND:                -0.713
REMARK  Name = 
REMARK  7 active torsions:
REMARK  status: ('A' for Active; 'I' for Inactive)
REMARK    1  A    between atoms: C_1  and  O_2
REMARK    2  A    between atoms: O_2  and  C_3
REMARK    3  A    between atoms: C_5  and  C_22
REMARK    4  A    between atoms: C_8  and  S_9
REMARK    5  A    between atoms: S_9  and  N_12
REMARK    6  A    between atoms: C_19  and  C_20
REMARK    7  A    between atoms: C_22  and  O_24
REMARK                            x       y       z     vdW  Elec       q    Type
REMARK                         _______ _______ _______ _____ _____    ______ ____
ROOT
ATOM      1  S   UNL     1     -30.947 -11.378  20.118  0.00  0.00    +0.064 S 
ATOM      2  O   UNL     1     -30.693  -9.895  20.145  0.00  0.00    -0.153 OA
ATOM      3  O   UNL     1     -31.843 -11.707  21.279  0.00  0.00    -0.153 OA
ENDROOT
BRANCH   1   4
ATOM      4  N   UNL     1     -31.739 -11.799  18.614  0.00  0.00    -0.175 NA
ATOM      5  C   UNL     1     -31.577 -10.694  17.636  0.00  0.00    +0.111 C 
ATOM      6  C   UNL     1     -32.843 -10.498  16.783  0.00  0.00    +0.036 C 
ATOM      7  C   UNL     1     -33.485 -11.803  16.295  0.00  0.00    +0.109 C 
ATOM      8  N   UNL     1     -32.466 -12.816  16.000  0.00  0.00    -0.300 N 
ATOM      9  C   UNL     1     -32.104 -13.741  17.083  0.00  0.00    +0.125 C 
ATOM     10  C   UNL     1     -31.177 -13.070  18.103  0.00  0.00    +0.128 C 
ATOM     11  C   UNL     1     -31.712 -12.743  14.767  0.00  0.00    +0.212 C 
ATOM     12  C   UNL     1     -30.539 -13.639  14.499  0.00  0.00    +0.109 C 
ATOM     13  O   UNL     1     -32.048 -11.914  13.876  0.00  0.00    -0.276 OA
ENDBRANCH   1   4
BRANCH   1  19
ATOM     14  C   UNL     1     -28.272 -11.854  19.535  0.00  0.00    +0.147 A 
ATOM     15  C   UNL     1     -27.059 -12.547  19.720  0.00  0.00    +0.062 A 
ATOM     16  C   UNL     1     -26.968 -13.612  20.633  0.00  0.00    +0.062 A 
ATOM     17  C   UNL     1     -28.107 -13.985  21.361  0.00  0.00    +0.017 A 
ATOM     18  C   UNL     1     -29.312 -13.303  21.185  0.00  0.00    +0.033 A 
ATOM     19  C   UNL     1     -29.405 -12.236  20.281  0.00  0.00    +0.147 A 
BRANCH  14  21
ATOM     20  C   UNL     1     -27.579 -10.630  17.458  0.00  0.00    +0.277 C 
ATOM     21  O   UNL     1     -28.381 -10.790  18.625  0.00  0.00    -0.493 OA
ENDBRANCH  14  21
BRANCH  16  22
ATOM     22  C   UNL     1     -25.689 -14.333  20.827  0.00  0.00    +0.337 C 
ATOM     23  O   UNL     1     -25.093 -14.294  21.937  0.00  0.00    -0.245 OA
BRANCH  22  24
ATOM     24  O   UNL     1     -25.130 -15.062  19.780  0.00  0.00    -0.477 OA
ATOM     25  H   UNL     1     -24.134 -15.241  19.745  0.00  0.00    +0.295 HD
ENDBRANCH  22  24
ENDBRANCH  16  22
ENDBRANCH   1  19
TORSDOF 5
ENDMDL
MODEL 7
REMARK VINA RESULT:    -3.350      3.467      6.678
REMARK INTER + INTRA:          -4.945
REMARK INTER:                  -4.628
REMARK INTRA:                  -0.317
REMARK UNBOUND:                -0.713
REMARK  Name = 
REMARK  7 active torsions:
REMARK  status: ('A' for Active; 'I' for Inactive)
REMARK    1  A    between atoms: C_1  and  O_2
REMARK    2  A    between atoms: O_2  and  C_3
REMARK    3  A    between atoms: C_5  and  C_22
REMARK    4  A    between atoms: C_8  and  S_9
REMARK    5  A    between atoms: S_9  and  N_12
REMARK    6  A    between atoms: C_19  and  C_20
REMARK    7  A    between atoms: C_22  and  O_24
REMARK                            x       y       z     vdW  Elec       q    Type
REMARK                         _______ _______ _______ _____ _____    ______ ____
ROOT
ATOM      1  S   UNL     1     -33.319 -10.832  16.312  0.00  0.00    +0.064 S 
ATOM      2  O   UNL     1     -34.617 -11.497  16.677  0.00  0.00    -0.153 OA
ATOM      3  O   UNL     1     -33.647  -9.614  15.493  0.00  0.00    -0.153 OA
ENDROOT
BRANCH   1   4
ATOM      4  N   UNL     1     -32.484 -10.358  17.777  0.00  0.00    -0.175 NA
ATOM      5  C   UNL     1     -31.312  -9.514  17.434  0.00  0.00    +0.111 C 
ATOM      6  C   UNL     1     -30.111  -9.809  18.350  0.00  0.00    +0.036 C 
ATOM      7  C   UNL     1     -30.470  -9.975  19.832  0.00  0.00    +0.109 C 
ATOM      8  N   UNL     1     -31.570  -9.081  20.213  0.00  0.00    -0.300 N 
ATOM      9  C   UNL     1     -32.934  -9.620  20.122  0.00  0.00    +0.125 C 
ATOM     10  C   UNL     1     -33.428  -9.648  18.671  0.00  0.00    +0.128 C 
ATOM     11  C   UNL     1     -31.310  -7.677  20.447  0.00  0.00    +0.212 C 
ATOM     12  C   UNL     1     -32.420  -6.689  20.657  0.00  0.00    +0.109 C 
ATOM     13  O   UNL     1     -30.120  -7.259  20.491  0.00  0.00    -0.276 OA
ENDBRANCH   1   4
BRANCH   1  19
ATOM     14  C   UNL     1     -32.527 -12.100  13.970  0.00  0.00    +0.147 A 
ATOM     15  C   UNL     1     -31.701 -12.983  13.248  0.00  0.00    +0.062 A 
ATOM     16  C   UNL     1     -30.694 -13.721  13.894  0.00  0.00    +0.062 A 
ATOM     17  C   UNL     1     -30.522 -13.573  15.278  0.00  0.00    +0.017 A 
ATOM     18  C   UNL     1     -31.334 -12.698  16.001  0.00  0.00    +0.033 A 
ATOM     19  C   UNL     1     -32.334 -11.955  15.359  0.00  0.00    +0.147 A 
BRANCH  14  21
ATOM     20  C   UNL     1     -34.372 -11.841  12.290  0.00  0.00    +0.277 C 
ATOM     21  O   UNL     1     -33.540 -11.356  13.341  0.00  0.00    -0.493 OA
ENDBRANCH  14  21
BRANCH  16  22
ATOM     22  C   UNL     1     -29.825 -14.644  13.129  0.00  0.00    +0.337 C 
ATOM     23  O   UNL     1     -30.178 -15.062  11.993  0.00  0.00    -0.245 OA
BRANCH  22  24
ATOM     24  O   UNL     1     -28.608 -15.062  13.660  0.00  0.00    -0.477 OA
ATOM     25  H   UNL     1     -28.505 -15.231  14.653  0.00  0.00    +0.295 HD
ENDBRANCH  22  24
ENDBRANCH  16  22
ENDBRANCH   1  19
TORSDOF 5
ENDMDL
MODEL 8
REMARK VINA RESULT:    -3.116      3.229      6.048
REMARK INTER + INTRA:          -4.649
REMARK INTER:                  -3.875
REMARK INTRA:                  -0.774
REMARK UNBOUND:                -0.713
REMARK  Name = 
REMARK  7 active torsions:
REMARK  status: ('A' for Active; 'I' for Inactive)
REMARK    1  A    between atoms: C_1  and  O_2
REMARK    2  A    between atoms: O_2  and  C_3
REMARK    3  A    between atoms: C_5  and  C_22
REMARK    4  A    between atoms: C_8  and  S_9
REMARK    5  A    between atoms: S_9  and  N_12
REMARK    6  A    between atoms: C_19  and  C_20
REMARK    7  A    between atoms: C_22  and  O_24
REMARK                            x       y       z     vdW  Elec       q    Type
REMARK                         _______ _______ _______ _____ _____    ______ ____
ROOT
ATOM      1  S   UNL     1     -30.355 -12.615  19.434  0.00  0.00    +0.064 S 
ATOM      2  O   UNL     1     -28.955 -12.278  19.868  0.00  0.00    -0.153 OA
ATOM      3  O   UNL     1     -30.859 -13.709  20.334  0.00  0.00    -0.153 OA
ENDROOT
BRANCH   1   4
ATOM      4  N   UNL     1     -31.366 -11.195  19.598  0.00  0.00    -0.175 NA
ATOM      5  C   UNL     1     -31.833 -11.072  21.001  0.00  0.00    +0.111 C 
ATOM      6  C   UNL     1     -33.283 -10.561  21.076  0.00  0.00    +0.036 C 
ATOM      7  C   UNL     1     -33.600  -9.413  20.107  0.00  0.00    +0.109 C 
ATOM      8  N   UNL     1     -32.443  -8.527  19.941  0.00  0.00    -0.300 N 
ATOM      9  C   UNL     1     -31.526  -8.821  18.832  0.00  0.00    +0.125 C 
ATOM     10  C   UNL     1     -30.605  -9.999  19.167  0.00  0.00    +0.128 C 
ATOM     11  C   UNL     1     -32.125  -7.556  20.967  0.00  0.00    +0.212 C 
ATOM     12  C   UNL     1     -30.857  -6.755  20.936  0.00  0.00    +0.109 C 
ATOM     13  O   UNL     1     -32.936  -7.357  21.914  0.00  0.00    -0.276 OA
ENDBRANCH   1   4
BRANCH   1  19
ATOM     14  C   UNL     1     -31.492 -13.181  16.962  0.00  0.00    +0.147 A 
ATOM     15  C   UNL     1     -31.415 -13.611  15.623  0.00  0.00    +0.062 A 
ATOM     16  C   UNL     1     -30.195 -14.039  15.071  0.00  0.00    +0.062 A 
ATOM     17  C   UNL     1     -29.046 -14.040  15.875  0.00  0.00    +0.017 A 
ATOM     18  C   UNL     1     -29.113 -13.614  17.202  0.00  0.00    +0.033 A 
ATOM     19  C   UNL     1     -30.326 -13.180  17.754  0.00  0.00    +0.147 A 
BRANCH  14  21
ATOM     20  C   UNL     1     -33.609 -11.836  16.921  0.00  0.00    +0.277 C 
ATOM     21  O   UNL     1     -32.703 -12.752  17.530  0.00  0.00    -0.493 OA
ENDBRANCH  14  21
BRANCH  16  22
ATOM     22  C   UNL     1     -30.119 -14.485  13.661  0.00  0.00    +0.337 C 
ATOM     23  O   UNL     1     -31.109 -14.350  12.892  0.00  0.00    -0.245 OA
BRANCH  22  24
ATOM     24  O   UNL     1     -28.950 -15.061  13.170  0.00  0.00    -0.477 OA
ATOM     25  H   UNL     1     -28.064 -14.918  13.639  0.00  0.00    +0.295 HD
ENDBRANCH  22  24
ENDBRANCH  16  22
ENDBRANCH   1  19
TORSDOF 5
ENDMDL
