MODEL 1
REMARK VINA RESULT:    -4.948      0.000      0.000
REMARK INTER + INTRA:          -6.432
REMARK INTER:                  -6.105
REMARK INTRA:                  -0.327
REMARK UNBOUND:                -0.327
REMARK  Name = 
REMARK  4 active torsions:
REMARK  status: ('A' for Active; 'I' for Inactive)
REMARK    1  A    between atoms: C_2  and  C_3
REMARK    2  A    between atoms: N_13  and  C_14
REMARK    3  A    between atoms: C_14  and  C_15
REMARK    4  A    between atoms: C_19  and  N_21
REMARK                            x       y       z     vdW  Elec       q    Type
REMARK                         _______ _______ _______ _____ _____    ______ ____
ROOT
ATOM      1  C   UNL     1     -27.278 -13.122  20.152  0.00  0.00    +0.052 A 
ATOM      2  C   UNL     1     -28.434 -13.644  20.748  0.00  0.00    +0.021 A 
ATOM      3  C   UNL     1     -29.698 -13.219  20.326  0.00  0.00    +0.029 A 
ATOM      4  C   UNL     1     -29.813 -12.268  19.307  0.00  0.00    +0.073 A 
ATOM      5  N   UNL     1     -31.040 -11.850  18.896  0.00  0.00    -0.232 NA
ATOM      6  C   UNL     1     -31.202 -10.925  17.910  0.00  0.00    +0.120 A 
ATOM      7  C   UNL     1     -30.066 -10.384  17.283  0.00  0.00    +0.044 A 
ATOM      8  C   UNL     1     -28.792 -10.791  17.684  0.00  0.00    +0.013 A 
ATOM      9  C   UNL     1     -28.651 -11.739  18.703  0.00  0.00    +0.002 A 
ATOM     10  C   UNL     1     -27.386 -12.170  19.130  0.00  0.00    +0.029 A 
ATOM     11  N   UNL     1     -32.536 -10.537  17.539  0.00  0.00    -0.325 N 
ATOM     12  H   UNL     1     -33.334 -11.048  17.981  0.00  0.00    +0.148 HD
ENDROOT
BRANCH   1  14
ATOM     13  N   UNL     1     -24.938 -13.921  20.943  0.00  0.00    -0.191 NA
ATOM     14  C   UNL     1     -25.980 -13.565  20.590  0.00  0.00    +0.099 C 
ENDBRANCH   1  14
BRANCH  11  15
ATOM     15  C   UNL     1     -32.860  -9.438  16.629  0.00  0.00    +0.138 C 
BRANCH  15  16
ATOM     16  C   UNL     1     -33.491  -9.961  15.365  0.00  0.00    -0.028 A 
ATOM     17  C   UNL     1     -34.485  -9.221  14.706  0.00  0.00    +0.005 A 
ATOM     18  C   UNL     1     -35.062  -9.708  13.532  0.00  0.00    +0.003 A 
ATOM     19  C   UNL     1     -34.649 -10.931  13.000  0.00  0.00    +0.033 A 
ATOM     20  C   UNL     1     -33.646 -11.682  13.636  0.00  0.00    +0.127 A 
ATOM     21  C   UNL     1     -33.068 -11.185  14.820  0.00  0.00    +0.038 A 
BRANCH  20  22
ATOM     22  N   UNL     1     -33.218 -12.941  13.083  0.00  0.00    +0.056 N 
ATOM     23  O   UNL     1     -33.941 -13.546  12.081  0.00  0.00    -0.126 OA
ATOM     24  O   UNL     1     -32.187 -13.505  13.505  0.00  0.00    -0.126 OA
ENDBRANCH  20  22
ENDBRANCH  15  16
ENDBRANCH  11  15
TORSDOF 4
ENDMDL
MODEL 2
REMARK VINA RESULT:    -4.229      3.086      3.678
REMARK INTER + INTRA:          -5.545
REMARK INTER:                  -5.153
REMARK INTRA:                  -0.393
REMARK UNBOUND:                -0.327
REMARK  Name = 
REMARK  4 active torsions:
REMARK  status: ('A' for Active; 'I' for Inactive)
REMARK    1  A    between atoms: C_2  and  C_3
REMARK    2  A    between atoms: N_13  and  C_14
REMARK    3  A    between atoms: C_14  and  C_15
REMARK    4  A    between atoms: C_19  and  N_21
REMARK                            x       y       z     vdW  Elec       q    Type
REMARK                         _______ _______ _______ _____ _____    ______ ____
ROOT
ATOM      1  C   UNL     1     -27.415 -13.348  20.268  0.00  0.00    +0.052 A 
ATOM      2  C   UNL     1     -28.409 -13.256  21.252  0.00  0.00    +0.021 A 
ATOM      3  C   UNL     1     -29.745 -13.063  20.887  0.00  0.00    +0.029 A 
ATOM      4  C   UNL     1     -30.095 -12.961  19.537  0.00  0.00    +0.073 A 
ATOM      5  N   UNL     1     -31.394 -12.772  19.180  0.00  0.00    -0.232 NA
ATOM      6  C   UNL     1     -31.783 -12.664  17.879  0.00  0.00    +0.120 A 
ATOM      7  C   UNL     1     -30.815 -12.760  16.862  0.00  0.00    +0.044 A 
ATOM      8  C   UNL     1     -29.474 -12.952  17.198  0.00  0.00    +0.013 A 
ATOM      9  C   UNL     1     -29.098 -13.055  18.542  0.00  0.00    +0.002 A 
ATOM     10  C   UNL     1     -27.759 -13.248  18.913  0.00  0.00    +0.029 A 
ATOM     11  N   UNL     1     -33.177 -12.461  17.589  0.00  0.00    -0.325 N 
ATOM     12  H   UNL     1     -33.851 -12.494  18.387  0.00  0.00    +0.148 HD
ENDROOT
BRANCH   1  14
ATOM     13  N   UNL     1     -24.938 -13.707  20.956  0.00  0.00    -0.191 NA
ATOM     14  C   UNL     1     -26.041 -13.547  20.649  0.00  0.00    +0.099 C 
ENDBRANCH   1  14
BRANCH  11  15
ATOM     15  C   UNL     1     -33.715 -12.155  16.263  0.00  0.00    +0.138 C 
BRANCH  15  16
ATOM     16  C   UNL     1     -34.083 -10.698  16.161  0.00  0.00    -0.028 A 
ATOM     17  C   UNL     1     -34.360 -10.118  14.913  0.00  0.00    +0.005 A 
ATOM     18  C   UNL     1     -34.705  -8.769  14.826  0.00  0.00    +0.003 A 
ATOM     19  C   UNL     1     -34.789  -7.988  15.980  0.00  0.00    +0.033 A 
ATOM     20  C   UNL     1     -34.530  -8.550  17.242  0.00  0.00    +0.127 A 
ATOM     21  C   UNL     1     -34.181  -9.913  17.322  0.00  0.00    +0.038 A 
BRANCH  20  22
ATOM     22  N   UNL     1     -34.620  -7.745  18.431  0.00  0.00    +0.056 N 
ATOM     23  O   UNL     1     -34.402  -8.300  19.670  0.00  0.00    -0.126 OA
ATOM     24  O   UNL     1     -34.901  -6.530  18.359  0.00  0.00    -0.126 OA
ENDBRANCH  20  22
ENDBRANCH  15  16
ENDBRANCH  11  15
TORSDOF 4
ENDMDL
MODEL 3
REMARK VINA RESULT:    -4.161      1.630      2.283
REMARK INTER + INTRA:          -5.461
REMARK INTER:                  -5.224
REMARK INTRA:                  -0.237
REMARK UNBOUND:                -0.327
REMARK  Name = 
REMARK  4 active torsions:
REMARK  status: ('A' for Active; 'I' for Inactive)
REMARK    1  A    between atoms: C_2  and  C_3
REMARK    2  A    between atoms: N_13  and  C_14
REMARK    3  A    between atoms: C_14  and  C_15
REMARK    4  A    between atoms: C_19  and  N_21
REMARK                            x       y       z     vdW  Elec       q    Type
REMARK                         _______ _______ _______ _____ _____    ______ ____
ROOT
ATOM      1  C   UNL     1     -27.017 -13.228  20.108  0.00  0.00    +0.052 A 
ATOM      2  C   UNL     1     -26.452 -12.258  19.268  0.00  0.00    +0.021 A 
ATOM      3  C   UNL     1     -27.253 -11.566  18.354  0.00  0.00    +0.029 A 
ATOM      4  C   UNL     1     -28.622 -11.840  18.274  0.00  0.00    +0.073 A 
ATOM      5  N   UNL     1     -29.402 -11.170  17.384  0.00  0.00    -0.232 NA
ATOM      6  C   UNL     1     -30.739 -11.403  17.268  0.00  0.00    +0.120 A 
ATOM      7  C   UNL     1     -31.343 -12.363  18.099  0.00  0.00    +0.044 A 
ATOM      8  C   UNL     1     -30.568 -13.070  19.021  0.00  0.00    +0.013 A 
ATOM      9  C   UNL     1     -29.195 -12.815  19.118  0.00  0.00    +0.002 A 
ATOM     10  C   UNL     1     -28.388 -13.506  20.034  0.00  0.00    +0.029 A 
ATOM     11  N   UNL     1     -31.490 -10.652  16.298  0.00  0.00    -0.325 N 
ATOM     12  H   UNL     1     -30.995  -9.890  15.782  0.00  0.00    +0.148 HD
ENDROOT
BRANCH   1  14
ATOM     13  N   UNL     1     -25.521 -14.505  21.803  0.00  0.00    -0.191 NA
ATOM     14  C   UNL     1     -26.187 -13.936  21.048  0.00  0.00    +0.099 C 
ENDBRANCH   1  14
BRANCH  11  15
ATOM     15  C   UNL     1     -32.885 -10.915  15.941  0.00  0.00    +0.138 C 
BRANCH  15  16
ATOM     16  C   UNL     1     -32.968 -11.667  14.639  0.00  0.00    -0.028 A 
ATOM     17  C   UNL     1     -34.152 -11.658  13.884  0.00  0.00    +0.005 A 
ATOM     18  C   UNL     1     -34.221 -12.353  12.676  0.00  0.00    +0.003 A 
ATOM     19  C   UNL     1     -33.111 -13.055  12.204  0.00  0.00    +0.033 A 
ATOM     20  C   UNL     1     -31.911 -13.068  12.936  0.00  0.00    +0.127 A 
ATOM     21  C   UNL     1     -31.848 -12.365  14.155  0.00  0.00    +0.038 A 
BRANCH  20  22
ATOM     22  N   UNL     1     -30.766 -13.789  12.445  0.00  0.00    +0.056 N 
ATOM     23  O   UNL     1     -30.905 -15.062  11.941  0.00  0.00    -0.126 OA
ATOM     24  O   UNL     1     -29.629 -13.274  12.470  0.00  0.00    -0.126 OA
ENDBRANCH  20  22
ENDBRANCH  15  16
ENDBRANCH  11  15
TORSDOF 4
ENDMDL
MODEL 4
REMARK VINA RESULT:    -4.159      4.704      6.175
REMARK INTER + INTRA:          -5.459
REMARK INTER:                  -5.108
REMARK INTRA:                  -0.350
REMARK UNBOUND:                -0.327
REMARK  Name = 
REMARK  4 active torsions:
REMARK  status: ('A' for Active; 'I' for Inactive)
REMARK    1  A    between atoms: C_2  and  C_3
REMARK    2  A    between atoms: N_13  and  C_14
REMARK    3  A    between atoms: C_14  and  C_15
REMARK    4  A    between atoms: C_19  and  N_21
REMARK                            x       y       z     vdW  Elec       q    Type
REMARK                         _______ _______ _______ _____ _____    ______ ____
ROOT
ATOM      1  C   UNL     1     -29.696 -14.203  13.770  0.00  0.00    +0.052 A 
ATOM      2  C   UNL     1     -29.646 -14.746  15.061  0.00  0.00    +0.021 A 
ATOM      3  C   UNL     1     -30.519 -14.288  16.052  0.00  0.00    +0.029 A 
ATOM      4  C   UNL     1     -31.447 -13.283  15.758  0.00  0.00    +0.073 A 
ATOM      5  N   UNL     1     -32.296 -12.834  16.721  0.00  0.00    -0.232 NA
ATOM      6  C   UNL     1     -33.214 -11.857  16.483  0.00  0.00    +0.120 A 
ATOM      7  C   UNL     1     -33.300 -11.292  15.198  0.00  0.00    +0.044 A 
ATOM      8  C   UNL     1     -32.440 -11.731  14.189  0.00  0.00    +0.013 A 
ATOM      9  C   UNL     1     -31.502 -12.734  14.460  0.00  0.00    +0.002 A 
ATOM     10  C   UNL     1     -30.623 -13.197  13.469  0.00  0.00    +0.029 A 
ATOM     11  N   UNL     1     -34.072 -11.438  17.559  0.00  0.00    -0.325 N 
ATOM     12  H   UNL     1     -34.017 -11.965  18.460  0.00  0.00    +0.148 HD
ENDROOT
BRANCH   1  14
ATOM     13  N   UNL     1     -28.070 -15.063  11.938  0.00  0.00    -0.191 NA
ATOM     14  C   UNL     1     -28.794 -14.680  12.754  0.00  0.00    +0.099 C 
ENDBRANCH   1  14
BRANCH  11  15
ATOM     15  C   UNL     1     -34.977 -10.289  17.503  0.00  0.00    +0.138 C 
BRANCH  15  16
ATOM     16  C   UNL     1     -34.345  -9.081  18.142  0.00  0.00    -0.028 A 
ATOM     17  C   UNL     1     -34.899  -7.804  17.958  0.00  0.00    +0.005 A 
ATOM     18  C   UNL     1     -34.311  -6.689  18.557  0.00  0.00    +0.003 A 
ATOM     19  C   UNL     1     -33.173  -6.836  19.352  0.00  0.00    +0.033 A 
ATOM     20  C   UNL     1     -32.608  -8.106  19.561  0.00  0.00    +0.127 A 
ATOM     21  C   UNL     1     -33.207  -9.227  18.953  0.00  0.00    +0.038 A 
BRANCH  20  22
ATOM     22  N   UNL     1     -31.437  -8.255  20.384  0.00  0.00    +0.056 N 
ATOM     23  O   UNL     1     -30.186  -8.321  19.815  0.00  0.00    -0.126 OA
ATOM     24  O   UNL     1     -31.536  -8.331  21.627  0.00  0.00    -0.126 OA
ENDBRANCH  20  22
ENDBRANCH  15  16
ENDBRANCH  11  15
TORSDOF 4
ENDMDL
MODEL 5
REMARK VINA RESULT:    -3.992      4.760      6.941
REMARK INTER + INTRA:          -5.252
REMARK INTER:                  -4.867
REMARK INTRA:                  -0.385
REMARK UNBOUND:                -0.327
REMARK  Name = 
REMARK  4 active torsions:
REMARK  status: ('A' for Active; 'I' for Inactive)
REMARK    1  A    between atoms: C_2  and  C_3
REMARK    2  A    between atoms: N_13  and  C_14
REMARK    3  A    between atoms: C_14  and  C_15
REMARK    4  A    between atoms: C_19  and  N_21
REMARK                            x       y       z     vdW  Elec       q    Type
REMARK                         _______ _______ _______ _____ _____    ______ ____
ROOT
ATOM      1  C   UNL     1     -29.746 -14.117  13.727  0.00  0.00    +0.052 A 
ATOM      2  C   UNL     1     -31.019 -13.669  13.349  0.00  0.00    +0.021 A 
ATOM      3  C   UNL     1     -31.900 -13.159  14.308  0.00  0.00    +0.029 A 
ATOM      4  C   UNL     1     -31.513 -13.094  15.650  0.00  0.00    +0.073 A 
ATOM      5  N   UNL     1     -32.368 -12.601  16.585  0.00  0.00    -0.232 NA
ATOM      6  C   UNL     1     -32.038 -12.521  17.904  0.00  0.00    +0.120 A 
ATOM      7  C   UNL     1     -30.767 -12.953  18.321  0.00  0.00    +0.044 A 
ATOM      8  C   UNL     1     -29.867 -13.467  17.385  0.00  0.00    +0.013 A 
ATOM      9  C   UNL     1     -30.232 -13.544  16.036  0.00  0.00    +0.002 A 
ATOM     10  C   UNL     1     -29.352 -14.054  15.070  0.00  0.00    +0.029 A 
ATOM     11  N   UNL     1     -33.004 -11.988  18.827  0.00  0.00    -0.325 N 
ATOM     12  H   UNL     1     -33.891 -11.600  18.435  0.00  0.00    +0.148 HD
ENDROOT
BRANCH   1  14
ATOM     13  N   UNL     1     -28.119 -15.061  11.938  0.00  0.00    -0.191 NA
ATOM     14  C   UNL     1     -28.844 -14.641  12.735  0.00  0.00    +0.099 C 
ENDBRANCH   1  14
BRANCH  11  15
ATOM     15  C   UNL     1     -32.859 -12.003  20.284  0.00  0.00    +0.138 C 
BRANCH  15  16
ATOM     16  C   UNL     1     -33.042 -10.620  20.851  0.00  0.00    -0.028 A 
ATOM     17  C   UNL     1     -34.220 -10.280  21.534  0.00  0.00    +0.005 A 
ATOM     18  C   UNL     1     -34.382  -8.999  22.062  0.00  0.00    +0.003 A 
ATOM     19  C   UNL     1     -33.369  -8.048  21.924  0.00  0.00    +0.033 A 
ATOM     20  C   UNL     1     -32.176  -8.370  21.256  0.00  0.00    +0.127 A 
ATOM     21  C   UNL     1     -32.020  -9.665  20.725  0.00  0.00    +0.038 A 
BRANCH  20  22
ATOM     22  N   UNL     1     -31.131  -7.389  21.118  0.00  0.00    +0.056 N 
ATOM     23  O   UNL     1     -30.158  -7.535  20.157  0.00  0.00    -0.126 OA
ATOM     24  O   UNL     1     -31.088  -6.392  21.870  0.00  0.00    -0.126 OA
ENDBRANCH  20  22
ENDBRANCH  15  16
ENDBRANCH  11  15
TORSDOF 4
ENDMDL
MODEL 6
REMARK VINA RESULT:    -3.807      3.386      5.433
REMARK INTER + INTRA:          -5.024
REMARK INTER:                  -4.647
REMARK INTRA:                  -0.377
REMARK UNBOUND:                -0.327
REMARK  Name = 
REMARK  4 active torsions:
REMARK  status: ('A' for Active; 'I' for Inactive)
REMARK    1  A    between atoms: C_2  and  C_3
REMARK    2  A    between atoms: N_13  and  C_14
REMARK    3  A    between atoms: C_14  and  C_15
REMARK    4  A    between atoms: C_19  and  N_21
REMARK                            x       y       z     vdW  Elec       q    Type
REMARK                         _______ _______ _______ _____ _____    ______ ____
ROOT
ATOM      1  C   UNL     1     -32.072  -7.547  19.903  0.00  0.00    +0.052 A 
ATOM      2  C   UNL     1     -33.302  -7.985  19.393  0.00  0.00    +0.021 A 
ATOM      3  C   UNL     1     -33.406  -9.240  18.786  0.00  0.00    +0.029 A 
ATOM      4  C   UNL     1     -32.281 -10.065  18.685  0.00  0.00    +0.073 A 
ATOM      5  N   UNL     1     -32.379 -11.286  18.093  0.00  0.00    -0.232 NA
ATOM      6  C   UNL     1     -31.311 -12.122  17.969  0.00  0.00    +0.120 A 
ATOM      7  C   UNL     1     -30.062 -11.722  18.475  0.00  0.00    +0.044 A 
ATOM      8  C   UNL     1     -29.929 -10.473  19.087  0.00  0.00    +0.013 A 
ATOM      9  C   UNL     1     -31.040  -9.629  19.198  0.00  0.00    +0.002 A 
ATOM     10  C   UNL     1     -30.941  -8.369  19.806  0.00  0.00    +0.029 A 
ATOM     11  N   UNL     1     -31.502 -13.395  17.326  0.00  0.00    -0.325 N 
ATOM     12  H   UNL     1     -32.475 -13.666  17.058  0.00  0.00    +0.148 HD
ENDROOT
BRANCH   1  14
ATOM     13  N   UNL     1     -31.891  -5.215  21.028  0.00  0.00    -0.191 NA
ATOM     14  C   UNL     1     -31.972  -6.254  20.527  0.00  0.00    +0.099 C 
ENDBRANCH   1  14
BRANCH  11  15
ATOM     15  C   UNL     1     -30.422 -14.316  16.967  0.00  0.00    +0.138 C 
BRANCH  15  16
ATOM     16  C   UNL     1     -30.227 -14.352  15.474  0.00  0.00    -0.028 A 
ATOM     17  C   UNL     1     -29.102 -14.979  14.917  0.00  0.00    +0.005 A 
ATOM     18  C   UNL     1     -28.929 -15.014  13.533  0.00  0.00    +0.003 A 
ATOM     19  C   UNL     1     -29.880 -14.433  12.691  0.00  0.00    +0.033 A 
ATOM     20  C   UNL     1     -31.021 -13.812  13.226  0.00  0.00    +0.127 A 
ATOM     21  C   UNL     1     -31.188 -13.780  14.624  0.00  0.00    +0.038 A 
BRANCH  20  22
ATOM     22  N   UNL     1     -32.002 -13.218  12.356  0.00  0.00    +0.056 N 
ATOM     23  O   UNL     1     -33.113 -13.930  11.966  0.00  0.00    -0.126 OA
ATOM     24  O   UNL     1     -31.861 -12.050  11.938  0.00  0.00    -0.126 OA
ENDBRANCH  20  22
ENDBRANCH  15  16
ENDBRANCH  11  15
TORSDOF 4
ENDMDL
MODEL 7
REMARK VINA RESULT:    -3.741      2.919      8.159
REMARK INTER + INTRA:          -4.943
REMARK INTER:                  -4.686
REMARK INTRA:                  -0.257
REMARK UNBOUND:                -0.327
REMARK  Name = 
REMARK  4 active torsions:
REMARK  status: ('A' for Active; 'I' for Inactive)
REMARK    1  A    between atoms: C_2  and  C_3
REMARK    2  A    between atoms: N_13  and  C_14
REMARK    3  A    between atoms: C_14  and  C_15
REMARK    4  A    between atoms: C_19  and  N_21
REMARK                            x       y       z     vdW  Elec       q    Type
REMARK                         _______ _______ _______ _____ _____    ______ ____
ROOT
ATOM      1  C   UNL     1     -33.900 -10.936  14.315  0.00  0.00    +0.052 A 
ATOM      2  C   UNL     1     -33.697  -9.677  14.896  0.00  0.00    +0.021 A 
ATOM      3  C   UNL     1     -33.081  -9.569  16.146  0.00  0.00    +0.029 A 
ATOM      4  C   UNL     1     -32.664 -10.719  16.823  0.00  0.00    +0.073 A 
ATOM      5  N   UNL     1     -32.066 -10.617  18.040  0.00  0.00    -0.232 NA
ATOM      6  C   UNL     1     -31.645 -11.708  18.739  0.00  0.00    +0.120 A 
ATOM      7  C   UNL     1     -31.825 -12.989  18.186  0.00  0.00    +0.044 A 
ATOM      8  C   UNL     1     -32.437 -13.126  16.939  0.00  0.00    +0.013 A 
ATOM      9  C   UNL     1     -32.865 -11.990  16.243  0.00  0.00    +0.002 A 
ATOM     10  C   UNL     1     -33.484 -12.093  14.988  0.00  0.00    +0.029 A 
ATOM     11  N   UNL     1     -31.025 -11.510  20.021  0.00  0.00    -0.325 N 
ATOM     12  H   UNL     1     -30.840 -10.529  20.328  0.00  0.00    +0.148 HD
ENDROOT
BRANCH   1  14
ATOM     13  N   UNL     1     -35.045 -11.126  11.993  0.00  0.00    -0.191 NA
ATOM     14  C   UNL     1     -34.535 -11.041  13.027  0.00  0.00    +0.099 C 
ENDBRANCH   1  14
BRANCH  11  15
ATOM     15  C   UNL     1     -30.685 -12.585  20.956  0.00  0.00    +0.138 C 
BRANCH  15  16
ATOM     16  C   UNL     1     -29.233 -12.964  20.827  0.00  0.00    -0.028 A 
ATOM     17  C   UNL     1     -28.709 -14.036  21.565  0.00  0.00    +0.005 A 
ATOM     18  C   UNL     1     -27.363 -14.386  21.438  0.00  0.00    +0.003 A 
ATOM     19  C   UNL     1     -26.532 -13.677  20.569  0.00  0.00    +0.033 A 
ATOM     20  C   UNL     1     -27.038 -12.608  19.811  0.00  0.00    +0.127 A 
ATOM     21  C   UNL     1     -28.397 -12.260  19.945  0.00  0.00    +0.038 A 
BRANCH  20  22
ATOM     22  N   UNL     1     -26.180 -11.881  18.913  0.00  0.00    +0.056 N 
ATOM     23  O   UNL     1     -26.714 -11.075  17.934  0.00  0.00    -0.126 OA
ATOM     24  O   UNL     1     -24.938 -11.971  19.004  0.00  0.00    -0.126 OA
ENDBRANCH  20  22
ENDBRANCH  15  16
ENDBRANCH  11  15
TORSDOF 4
ENDMDL
MODEL 8
REMARK VINA RESULT:    -3.609      4.368      6.489
REMARK INTER + INTRA:          -4.780
REMARK INTER:                  -4.356
REMARK INTRA:                  -0.423
REMARK UNBOUND:                -0.327
REMARK  Name = 
REMARK  4 active torsions:
REMARK  status: ('A' for Active; 'I' for Inactive)
REMARK    1  A    between atoms: C_2  and  C_3
REMARK    2  A    between atoms: N_13  and  C_14
REMARK    3  A    between atoms: C_14  and  C_15
REMARK    4  A    between atoms: C_19  and  N_21
REMARK                            x       y       z     vdW  Elec       q    Type
REMARK                         _______ _______ _______ _____ _____    ______ ____
ROOT
ATOM      1  C   UNL     1     -30.017 -14.290  14.368  0.00  0.00    +0.052 A 
ATOM      2  C   UNL     1     -29.109 -14.584  15.393  0.00  0.00    +0.021 A 
ATOM      3  C   UNL     1     -29.369 -14.171  16.704  0.00  0.00    +0.029 A 
ATOM      4  C   UNL     1     -30.538 -13.462  16.996  0.00  0.00    +0.073 A 
ATOM      5  N   UNL     1     -30.792 -13.058  18.269  0.00  0.00    -0.232 NA
ATOM      6  C   UNL     1     -31.915 -12.363  18.602  0.00  0.00    +0.120 A 
ATOM      7  C   UNL     1     -32.854 -12.055  17.601  0.00  0.00    +0.044 A 
ATOM      8  C   UNL     1     -32.620 -12.455  16.284  0.00  0.00    +0.013 A 
ATOM      9  C   UNL     1     -31.456 -13.164  15.967  0.00  0.00    +0.002 A 
ATOM     10  C   UNL     1     -31.191 -13.580  14.654  0.00  0.00    +0.029 A 
ATOM     11  N   UNL     1     -32.105 -11.971  19.973  0.00  0.00    -0.325 N 
ATOM     12  H   UNL     1     -31.414 -12.313  20.678  0.00  0.00    +0.148 HD
ENDROOT
BRANCH   1  14
ATOM     13  N   UNL     1     -29.525 -15.061  11.938  0.00  0.00    -0.191 NA
ATOM     14  C   UNL     1     -29.744 -14.718  13.020  0.00  0.00    +0.099 C 
ENDBRANCH   1  14
BRANCH  11  15
ATOM     15  C   UNL     1     -33.164 -11.077  20.444  0.00  0.00    +0.138 C 
BRANCH  15  16
ATOM     16  C   UNL     1     -32.746  -9.637  20.308  0.00  0.00    -0.028 A 
ATOM     17  C   UNL     1     -31.447  -9.236  20.659  0.00  0.00    +0.005 A 
ATOM     18  C   UNL     1     -31.063  -7.901  20.526  0.00  0.00    +0.003 A 
ATOM     19  C   UNL     1     -31.965  -6.955  20.035  0.00  0.00    +0.033 A 
ATOM     20  C   UNL     1     -33.266  -7.336  19.666  0.00  0.00    +0.127 A 
ATOM     21  C   UNL     1     -33.647  -8.685  19.803  0.00  0.00    +0.038 A 
BRANCH  20  22
ATOM     22  N   UNL     1     -34.193  -6.360  19.156  0.00  0.00    +0.056 N 
ATOM     23  O   UNL     1     -34.745  -5.416  19.991  0.00  0.00    -0.126 OA
ATOM     24  O   UNL     1     -34.515  -6.354  17.949  0.00  0.00    -0.126 OA
ENDBRANCH  20  22
ENDBRANCH  15  16
ENDBRANCH  11  15
TORSDOF 4
ENDMDL
MODEL 9
REMARK VINA RESULT:    -3.547      4.131      5.350
REMARK INTER + INTRA:          -4.703
REMARK INTER:                  -4.946
REMARK INTRA:                   0.243
REMARK UNBOUND:                -0.327
REMARK  Name = 
REMARK  4 active torsions:
REMARK  status: ('A' for Active; 'I' for Inactive)
REMARK    1  A    between atoms: C_2  and  C_3
REMARK    2  A    between atoms: N_13  and  C_14
REMARK    3  A    between atoms: C_14  and  C_15
REMARK    4  A    between atoms: C_19  and  N_21
REMARK                            x       y       z     vdW  Elec       q    Type
REMARK                         _______ _______ _______ _____ _____    ______ ____
ROOT
ATOM      1  C   UNL     1     -32.330  -8.514  20.164  0.00  0.00    +0.052 A 
ATOM      2  C   UNL     1     -33.446  -9.335  20.374  0.00  0.00    +0.021 A 
ATOM      3  C   UNL     1     -33.893 -10.188  19.361  0.00  0.00    +0.029 A 
ATOM      4  C   UNL     1     -33.227 -10.226  18.131  0.00  0.00    +0.073 A 
ATOM      5  N   UNL     1     -33.661 -11.053  17.143  0.00  0.00    -0.232 NA
ATOM      6  C   UNL     1     -33.048 -11.122  15.929  0.00  0.00    +0.120 A 
ATOM      7  C   UNL     1     -31.920 -10.318  15.683  0.00  0.00    +0.044 A 
ATOM      8  C   UNL     1     -31.452  -9.457  16.677  0.00  0.00    +0.013 A 
ATOM      9  C   UNL     1     -32.102  -9.401  17.915  0.00  0.00    +0.002 A 
ATOM     10  C   UNL     1     -31.658  -8.547  18.935  0.00  0.00    +0.029 A 
ATOM     11  N   UNL     1     -33.575 -12.022  14.939  0.00  0.00    -0.325 N 
ATOM     12  H   UNL     1     -34.356 -12.655  15.222  0.00  0.00    +0.148 HD
ENDROOT
BRANCH   1  14
ATOM     13  N   UNL     1     -31.507  -6.934  22.053  0.00  0.00    -0.191 NA
ATOM     14  C   UNL     1     -31.873  -7.638  21.212  0.00  0.00    +0.099 C 
ENDBRANCH   1  14
BRANCH  11  15
ATOM     15  C   UNL     1     -33.133 -12.075  13.544  0.00  0.00    +0.138 C 
BRANCH  15  16
ATOM     16  C   UNL     1     -32.034 -13.091  13.372  0.00  0.00    -0.028 A 
ATOM     17  C   UNL     1     -31.815 -13.699  12.126  0.00  0.00    +0.005 A 
ATOM     18  C   UNL     1     -30.792 -14.635  11.971  0.00  0.00    +0.003 A 
ATOM     19  C   UNL     1     -29.973 -14.968  13.052  0.00  0.00    +0.033 A 
ATOM     20  C   UNL     1     -30.165 -14.362  14.305  0.00  0.00    +0.127 A 
ATOM     21  C   UNL     1     -31.200 -13.418  14.454  0.00  0.00    +0.038 A 
BRANCH  20  22
ATOM     22  N   UNL     1     -29.317 -14.702  15.416  0.00  0.00    +0.056 N 
ATOM     23  O   UNL     1     -27.948 -14.640  15.296  0.00  0.00    -0.126 OA
ATOM     24  O   UNL     1     -29.808 -15.062  16.507  0.00  0.00    -0.126 OA
ENDBRANCH  20  22
ENDBRANCH  15  16
ENDBRANCH  11  15
TORSDOF 4
ENDMDL
