MODEL 1
REMARK VINA RESULT:    -4.918      0.000      0.000
REMARK INTER + INTRA:          -6.399
REMARK INTER:                  -6.068
REMARK INTRA:                  -0.331
REMARK UNBOUND:                -0.331
REMARK  Name = 
REMARK  4 active torsions:
REMARK  status: ('A' for Active; 'I' for Inactive)
REMARK    1  A    between atoms: C_2  and  C_3
REMARK    2  A    between atoms: N_13  and  C_14
REMARK    3  A    between atoms: C_14  and  C_15
REMARK    4  A    between atoms: C_19  and  N_21
REMARK                            x       y       z     vdW  Elec       q    Type
REMARK                         _______ _______ _______ _____ _____    ______ ____
ROOT
ATOM      1  C   UNL     1     -27.271 -13.118  20.116  0.00  0.00    +0.052 A 
ATOM      2  C   UNL     1     -28.433 -13.630  20.710  0.00  0.00    +0.021 A 
ATOM      3  C   UNL     1     -29.692 -13.199  20.281  0.00  0.00    +0.029 A 
ATOM      4  C   UNL     1     -29.798 -12.254  19.256  0.00  0.00    +0.073 A 
ATOM      5  N   UNL     1     -31.021 -11.832  18.839  0.00  0.00    -0.232 NA
ATOM      6  C   UNL     1     -31.174 -10.911  17.846  0.00  0.00    +0.120 A 
ATOM      7  C   UNL     1     -30.032 -10.380  17.220  0.00  0.00    +0.044 A 
ATOM      8  C   UNL     1     -28.762 -10.792  17.629  0.00  0.00    +0.013 A 
ATOM      9  C   UNL     1     -28.631 -11.736  18.654  0.00  0.00    +0.002 A 
ATOM     10  C   UNL     1     -27.370 -12.171  19.088  0.00  0.00    +0.029 A 
ATOM     11  N   UNL     1     -32.505 -10.518  17.468  0.00  0.00    -0.325 N 
ATOM     12  H   UNL     1     -33.306 -11.021  17.910  0.00  0.00    +0.148 HD
ENDROOT
BRANCH   1  14
ATOM     13  N   UNL     1     -24.938 -13.925  20.920  0.00  0.00    -0.191 NA
ATOM     14  C   UNL     1     -25.978 -13.566  20.561  0.00  0.00    +0.099 C 
ENDBRANCH   1  14
BRANCH  11  15
ATOM     15  C   UNL     1     -32.819  -9.422  16.550  0.00  0.00    +0.138 C 
BRANCH  15  16
ATOM     16  C   UNL     1     -33.472  -9.946  15.299  0.00  0.00    -0.028 A 
ATOM     17  C   UNL     1     -34.464  -9.197  14.646  0.00  0.00    +0.005 A 
ATOM     18  C   UNL     1     -35.062  -9.686  13.483  0.00  0.00    +0.003 A 
ATOM     19  C   UNL     1     -34.672 -10.918  12.956  0.00  0.00    +0.033 A 
ATOM     20  C   UNL     1     -33.672 -11.679  13.585  0.00  0.00    +0.127 A 
ATOM     21  C   UNL     1     -33.073 -11.179  14.758  0.00  0.00    +0.038 A 
BRANCH  20  22
ATOM     22  N   UNL     1     -33.268 -12.947  13.037  0.00  0.00    +0.056 N 
ATOM     23  O   UNL     1     -32.055 -13.501  13.377  0.00  0.00    -0.126 OA
ATOM     24  O   UNL     1     -34.009 -13.564  12.244  0.00  0.00    -0.126 OA
ENDBRANCH  20  22
ENDBRANCH  15  16
ENDBRANCH  11  15
TORSDOF 4
ENDMDL
MODEL 2
REMARK VINA RESULT:    -4.424      1.400      2.017
REMARK INTER + INTRA:          -5.789
REMARK INTER:                  -5.721
REMARK INTRA:                  -0.068
REMARK UNBOUND:                -0.331
REMARK  Name = 
REMARK  4 active torsions:
REMARK  status: ('A' for Active; 'I' for Inactive)
REMARK    1  A    between atoms: C_2  and  C_3
REMARK    2  A    between atoms: N_13  and  C_14
REMARK    3  A    between atoms: C_14  and  C_15
REMARK    4  A    between atoms: C_19  and  N_21
REMARK                            x       y       z     vdW  Elec       q    Type
REMARK                         _______ _______ _______ _____ _____    ______ ____
ROOT
ATOM      1  C   UNL     1     -27.900 -13.234  20.238  0.00  0.00    +0.052 A 
ATOM      2  C   UNL     1     -27.100 -12.443  19.401  0.00  0.00    +0.021 A 
ATOM      3  C   UNL     1     -27.688 -11.641  18.418  0.00  0.00    +0.029 A 
ATOM      4  C   UNL     1     -29.078 -11.624  18.266  0.00  0.00    +0.073 A 
ATOM      5  N   UNL     1     -29.652 -10.847  17.309  0.00  0.00    -0.232 NA
ATOM      6  C   UNL     1     -31.000 -10.800  17.121  0.00  0.00    +0.120 A 
ATOM      7  C   UNL     1     -31.836 -11.573  17.946  0.00  0.00    +0.044 A 
ATOM      8  C   UNL     1     -31.276 -12.383  18.936  0.00  0.00    +0.013 A 
ATOM      9  C   UNL     1     -29.888 -12.418  19.106  0.00  0.00    +0.002 A 
ATOM     10  C   UNL     1     -29.294 -13.221  20.091  0.00  0.00    +0.029 A 
ATOM     11  N   UNL     1     -31.523  -9.952  16.083  0.00  0.00    -0.325 N 
ATOM     12  H   UNL     1     -30.852  -9.336  15.572  0.00  0.00    +0.148 HD
ENDROOT
BRANCH   1  14
ATOM     13  N   UNL     1     -26.799 -14.719  22.061  0.00  0.00    -0.191 NA
ATOM     14  C   UNL     1     -27.289 -14.057  21.249  0.00  0.00    +0.099 C 
ENDBRANCH   1  14
BRANCH  11  15
ATOM     15  C   UNL     1     -32.922  -9.933  15.652  0.00  0.00    +0.138 C 
BRANCH  15  16
ATOM     16  C   UNL     1     -33.145 -10.904  14.523  0.00  0.00    -0.028 A 
ATOM     17  C   UNL     1     -34.305 -10.829  13.736  0.00  0.00    +0.005 A 
ATOM     18  C   UNL     1     -34.503 -11.729  12.688  0.00  0.00    +0.003 A 
ATOM     19  C   UNL     1     -33.545 -12.705  12.408  0.00  0.00    +0.033 A 
ATOM     20  C   UNL     1     -32.370 -12.791  13.174  0.00  0.00    +0.127 A 
ATOM     21  C   UNL     1     -32.177 -11.880  14.231  0.00  0.00    +0.038 A 
BRANCH  20  22
ATOM     22  N   UNL     1     -31.382 -13.795  12.881  0.00  0.00    +0.056 N 
ATOM     23  O   UNL     1     -30.234 -13.888  13.635  0.00  0.00    -0.126 OA
ATOM     24  O   UNL     1     -31.546 -14.597  11.938  0.00  0.00    -0.126 OA
ENDBRANCH  20  22
ENDBRANCH  15  16
ENDBRANCH  11  15
TORSDOF 4
ENDMDL
MODEL 3
REMARK VINA RESULT:    -4.247      4.602      6.301
REMARK INTER + INTRA:          -5.571
REMARK INTER:                  -5.279
REMARK INTRA:                  -0.291
REMARK UNBOUND:                -0.331
REMARK  Name = 
REMARK  4 active torsions:
REMARK  status: ('A' for Active; 'I' for Inactive)
REMARK    1  A    between atoms: C_2  and  C_3
REMARK    2  A    between atoms: N_13  and  C_14
REMARK    3  A    between atoms: C_14  and  C_15
REMARK    4  A    between atoms: C_19  and  N_21
REMARK                            x       y       z     vdW  Elec       q    Type
REMARK                         _______ _______ _______ _____ _____    ______ ____
ROOT
ATOM      1  C   UNL     1     -30.081 -14.078  13.852  0.00  0.00    +0.052 A 
ATOM      2  C   UNL     1     -30.010 -14.627  15.139  0.00  0.00    +0.021 A 
ATOM      3  C   UNL     1     -30.790 -14.102  16.173  0.00  0.00    +0.029 A 
ATOM      4  C   UNL     1     -31.646 -13.023  15.927  0.00  0.00    +0.073 A 
ATOM      5  N   UNL     1     -32.404 -12.509  16.931  0.00  0.00    -0.232 NA
ATOM      6  C   UNL     1     -33.250 -11.458  16.741  0.00  0.00    +0.120 A 
ATOM      7  C   UNL     1     -33.354 -10.884  15.461  0.00  0.00    +0.044 A 
ATOM      8  C   UNL     1     -32.587 -11.389  14.409  0.00  0.00    +0.013 A 
ATOM      9  C   UNL     1     -31.722 -12.467  14.632  0.00  0.00    +0.002 A 
ATOM     10  C   UNL     1     -30.937 -12.998  13.598  0.00  0.00    +0.029 A 
ATOM     11  N   UNL     1     -34.013 -10.974  17.859  0.00  0.00    -0.325 N 
ATOM     12  H   UNL     1     -33.956 -11.506  18.756  0.00  0.00    +0.148 HD
ENDROOT
BRANCH   1  14
ATOM     13  N   UNL     1     -28.629 -15.062  11.938  0.00  0.00    -0.191 NA
ATOM     14  C   UNL     1     -29.276 -14.624  12.790  0.00  0.00    +0.099 C 
ENDBRANCH   1  14
BRANCH  11  15
ATOM     15  C   UNL     1     -34.822  -9.753  17.848  0.00  0.00    +0.138 C 
BRANCH  15  16
ATOM     16  C   UNL     1     -34.078  -8.616  18.498  0.00  0.00    -0.028 A 
ATOM     17  C   UNL     1     -34.693  -7.365  18.663  0.00  0.00    +0.005 A 
ATOM     18  C   UNL     1     -34.001  -6.316  19.271  0.00  0.00    +0.003 A 
ATOM     19  C   UNL     1     -32.695  -6.506  19.727  0.00  0.00    +0.033 A 
ATOM     20  C   UNL     1     -32.064  -7.754  19.584  0.00  0.00    +0.127 A 
ATOM     21  C   UNL     1     -32.769  -8.808  18.969  0.00  0.00    +0.038 A 
BRANCH  20  22
ATOM     22  N   UNL     1     -30.720  -7.949  20.058  0.00  0.00    +0.056 N 
ATOM     23  O   UNL     1     -30.149  -9.200  20.046  0.00  0.00    -0.126 OA
ATOM     24  O   UNL     1     -30.050  -6.987  20.491  0.00  0.00    -0.126 OA
ENDBRANCH  20  22
ENDBRANCH  15  16
ENDBRANCH  11  15
TORSDOF 4
ENDMDL
MODEL 4
REMARK VINA RESULT:    -3.815      3.398      5.454
REMARK INTER + INTRA:          -5.039
REMARK INTER:                  -4.658
REMARK INTRA:                  -0.381
REMARK UNBOUND:                -0.331
REMARK  Name = 
REMARK  4 active torsions:
REMARK  status: ('A' for Active; 'I' for Inactive)
REMARK    1  A    between atoms: C_2  and  C_3
REMARK    2  A    between atoms: N_13  and  C_14
REMARK    3  A    between atoms: C_14  and  C_15
REMARK    4  A    between atoms: C_19  and  N_21
REMARK                            x       y       z     vdW  Elec       q    Type
REMARK                         _______ _______ _______ _____ _____    ______ ____
ROOT
ATOM      1  C   UNL     1     -32.044  -7.536  19.901  0.00  0.00    +0.052 A 
ATOM      2  C   UNL     1     -33.275  -7.970  19.392  0.00  0.00    +0.021 A 
ATOM      3  C   UNL     1     -33.383  -9.226  18.788  0.00  0.00    +0.029 A 
ATOM      4  C   UNL     1     -32.261 -10.055  18.688  0.00  0.00    +0.073 A 
ATOM      5  N   UNL     1     -32.363 -11.277  18.099  0.00  0.00    -0.232 NA
ATOM      6  C   UNL     1     -31.298 -12.117  17.976  0.00  0.00    +0.120 A 
ATOM      7  C   UNL     1     -30.048 -11.720  18.482  0.00  0.00    +0.044 A 
ATOM      8  C   UNL     1     -29.911 -10.470  19.090  0.00  0.00    +0.013 A 
ATOM      9  C   UNL     1     -31.019  -9.623  19.200  0.00  0.00    +0.002 A 
ATOM     10  C   UNL     1     -30.915  -8.361  19.805  0.00  0.00    +0.029 A 
ATOM     11  N   UNL     1     -31.493 -13.390  17.336  0.00  0.00    -0.325 N 
ATOM     12  H   UNL     1     -32.467 -13.658  17.069  0.00  0.00    +0.148 HD
ENDROOT
BRANCH   1  14
ATOM     13  N   UNL     1     -31.854  -5.202  21.022  0.00  0.00    -0.191 NA
ATOM     14  C   UNL     1     -31.938  -6.241  20.523  0.00  0.00    +0.099 C 
ENDBRANCH   1  14
BRANCH  11  15
ATOM     15  C   UNL     1     -30.416 -14.315  16.979  0.00  0.00    +0.138 C 
BRANCH  15  16
ATOM     16  C   UNL     1     -30.210 -14.342  15.487  0.00  0.00    -0.028 A 
ATOM     17  C   UNL     1     -29.072 -14.951  14.936  0.00  0.00    +0.005 A 
ATOM     18  C   UNL     1     -28.889 -14.976  13.552  0.00  0.00    +0.003 A 
ATOM     19  C   UNL     1     -29.842 -14.406  12.706  0.00  0.00    +0.033 A 
ATOM     20  C   UNL     1     -30.995 -13.803  13.235  0.00  0.00    +0.127 A 
ATOM     21  C   UNL     1     -31.173 -13.780  14.632  0.00  0.00    +0.038 A 
BRANCH  20  22
ATOM     22  N   UNL     1     -31.978 -13.219  12.361  0.00  0.00    +0.056 N 
ATOM     23  O   UNL     1     -33.085 -13.939  11.973  0.00  0.00    -0.126 OA
ATOM     24  O   UNL     1     -31.843 -12.052  11.938  0.00  0.00    -0.126 OA
ENDBRANCH  20  22
ENDBRANCH  15  16
ENDBRANCH  11  15
TORSDOF 4
ENDMDL
MODEL 5
REMARK VINA RESULT:    -3.625      4.492      6.717
REMARK INTER + INTRA:          -4.803
REMARK INTER:                  -4.327
REMARK INTRA:                  -0.476
REMARK UNBOUND:                -0.331
REMARK  Name = 
REMARK  4 active torsions:
REMARK  status: ('A' for Active; 'I' for Inactive)
REMARK    1  A    between atoms: C_2  and  C_3
REMARK    2  A    between atoms: N_13  and  C_14
REMARK    3  A    between atoms: C_14  and  C_15
REMARK    4  A    between atoms: C_19  and  N_21
REMARK                            x       y       z     vdW  Elec       q    Type
REMARK                         _______ _______ _______ _____ _____    ______ ____
ROOT
ATOM      1  C   UNL     1     -30.115 -14.294  14.362  0.00  0.00    +0.052 A 
ATOM      2  C   UNL     1     -29.286 -14.695  15.418  0.00  0.00    +0.021 A 
ATOM      3  C   UNL     1     -29.563 -14.285  16.725  0.00  0.00    +0.029 A 
ATOM      4  C   UNL     1     -30.670 -13.471  16.985  0.00  0.00    +0.073 A 
ATOM      5  N   UNL     1     -30.940 -13.069  18.256  0.00  0.00    -0.232 NA
ATOM      6  C   UNL     1     -32.004 -12.274  18.557  0.00  0.00    +0.120 A 
ATOM      7  C   UNL     1     -32.864 -11.857  17.525  0.00  0.00    +0.044 A 
ATOM      8  C   UNL     1     -32.612 -12.251  16.210  0.00  0.00    +0.013 A 
ATOM      9  C   UNL     1     -31.509 -13.064  15.925  0.00  0.00    +0.002 A 
ATOM     10  C   UNL     1     -31.227 -13.479  14.615  0.00  0.00    +0.029 A 
ATOM     11  N   UNL     1     -32.215 -11.892  19.928  0.00  0.00    -0.325 N 
ATOM     12  H   UNL     1     -31.593 -12.314  20.653  0.00  0.00    +0.148 HD
ENDROOT
BRANCH   1  14
ATOM     13  N   UNL     1     -29.593 -15.062  11.938  0.00  0.00    -0.191 NA
ATOM     14  C   UNL     1     -29.826 -14.720  13.017  0.00  0.00    +0.099 C 
ENDBRANCH   1  14
BRANCH  11  15
ATOM     15  C   UNL     1     -33.204 -10.909  20.375  0.00  0.00    +0.138 C 
BRANCH  15  16
ATOM     16  C   UNL     1     -32.556  -9.569  20.602  0.00  0.00    -0.028 A 
ATOM     17  C   UNL     1     -31.516  -9.428  21.535  0.00  0.00    +0.005 A 
ATOM     18  C   UNL     1     -30.916  -8.185  21.738  0.00  0.00    +0.003 A 
ATOM     19  C   UNL     1     -31.339  -7.073  21.007  0.00  0.00    +0.033 A 
ATOM     20  C   UNL     1     -32.369  -7.192  20.059  0.00  0.00    +0.127 A 
ATOM     21  C   UNL     1     -32.970  -8.450  19.860  0.00  0.00    +0.038 A 
BRANCH  20  22
ATOM     22  N   UNL     1     -32.800  -6.045  19.304  0.00  0.00    +0.056 N 
ATOM     23  O   UNL     1     -31.988  -4.941  19.184  0.00  0.00    -0.126 OA
ATOM     24  O   UNL     1     -33.918  -6.031  18.747  0.00  0.00    -0.126 OA
ENDBRANCH  20  22
ENDBRANCH  15  16
ENDBRANCH  11  15
TORSDOF 4
ENDMDL
