MODEL 1
REMARK VINA RESULT:    -4.411      0.000      0.000
REMARK INTER + INTRA:          -9.276
REMARK INTER:                  -6.345
REMARK INTRA:                  -2.932
REMARK UNBOUND:                -2.932
REMARK  Name = 
REMARK  10 active torsions:
REMARK  status: ('A' for Active; 'I' for Inactive)
REMARK    1  A    between atoms: C_1  and  O_2
REMARK    2  A    between atoms: O_2  and  C_3
REMARK    3  A    between atoms: C_3  and  C_4
REMARK    4  A    between atoms: C_3  and  C_5
REMARK    5  A    between atoms: C_3  and  C_19
REMARK    6  A    between atoms: N_7  and  CA_8
REMARK    7  A    between atoms: CA_8  and  CB_9
REMARK    8  A    between atoms: CA_8  and  C_16
REMARK    9  A    between atoms: CB_9  and  CG_10
REMARK   10  A    between atoms: C_16  and  OXT_18
REMARK                            x       y       z     vdW  Elec       q    Type
REMARK                         _______ _______ _______ _____ _____    ______ ____
ROOT
ATOM      1  C   UNK A   0     -29.644 -11.146  19.188  0.00  0.00    +0.250 C 
ATOM      2  O   UNK A   0     -28.845 -10.184  19.020  0.00  0.00    -0.272 OA
ATOM      3  N   PHE A   1     -31.015 -10.882  19.542  0.00  0.00    -0.299 N 
ATOM      4  H   PHE A   1     -31.604 -11.677  19.875  0.00  0.00    +0.150 HD
ENDROOT
BRANCH   1   5
ATOM      5  C   UNK A   0     -29.123 -12.589  19.131  0.00  0.00    +0.166 C 
ATOM      6  C   UNK A   0     -29.580 -13.329  20.404  0.00  0.00    +0.057 C 
BRANCH   5   7
ATOM      7  C   UNK A   0     -29.696 -13.385  17.943  0.00  0.00    -0.007 A 
ATOM      8  C   UNK A   0     -28.960 -13.512  16.744  0.00  0.00    +0.007 A 
ATOM      9  C   UNK A   0     -29.498 -14.181  15.640  0.00  0.00    +0.000 A 
ATOM     10  C   UNK A   0     -30.789 -14.702  15.699  0.00  0.00    +0.000 A 
ATOM     11  C   UNK A   0     -31.551 -14.545  16.858  0.00  0.00    +0.000 A 
ATOM     12  C   UNK A   0     -31.019 -13.881  17.966  0.00  0.00    +0.007 A 
ENDBRANCH   5   7
BRANCH   5  14
ATOM     13  C   UNK A   0     -27.153 -13.378  20.200  0.00  0.00    +0.195 C 
ATOM     14  O   UNK A   0     -27.696 -12.611  19.138  0.00  0.00    -0.363 OA
ENDBRANCH   5  14
ENDBRANCH   1   5
BRANCH   3  15
ATOM     15  CA  PHE A   1     -31.642  -9.555  19.536  0.00  0.00    +0.186 C 
BRANCH  15  16
ATOM     16  C   PHE A   1     -31.023  -8.676  20.589  0.00  0.00    +0.326 C 
ATOM     17  O   PHE A   1     -31.527  -8.598  21.743  0.00  0.00    -0.249 OA
BRANCH  16  18
ATOM     18  OXT PHE A   1     -29.888  -7.932  20.282  0.00  0.00    -0.479 OA
ATOM     19  HXT PHE A   1     -28.960  -8.329  20.389  0.00  0.00    +0.295 HD
ENDBRANCH  16  18
ENDBRANCH  15  16
BRANCH  15  20
ATOM     20  CB  PHE A   1     -31.612  -8.913  18.131  0.00  0.00    +0.069 C 
BRANCH  20  21
ATOM     21  CG  PHE A   1     -32.115  -9.868  17.077  0.00  0.00    -0.045 A 
ATOM     22  CD1 PHE A   1     -33.394 -10.444  17.195  0.00  0.00    +0.004 A 
ATOM     23  CE1 PHE A   1     -33.873 -11.303  16.201  0.00  0.00    +0.000 A 
ATOM     24  CZ  PHE A   1     -33.088 -11.582  15.077  0.00  0.00    +0.000 A 
ATOM     25  CE2 PHE A   1     -31.820 -11.007  14.949  0.00  0.00    +0.000 A 
ATOM     26  CD2 PHE A   1     -31.334 -10.152  15.944  0.00  0.00    +0.004 A 
ENDBRANCH  20  21
ENDBRANCH  15  20
ENDBRANCH   3  15
TORSDOF 8
ENDMDL
MODEL 2
REMARK VINA RESULT:    -4.300      2.694      5.964
REMARK INTER + INTRA:          -9.117
REMARK INTER:                  -7.529
REMARK INTRA:                  -1.588
REMARK UNBOUND:                -2.932
REMARK  Name = 
REMARK  10 active torsions:
REMARK  status: ('A' for Active; 'I' for Inactive)
REMARK    1  A    between atoms: C_1  and  O_2
REMARK    2  A    between atoms: O_2  and  C_3
REMARK    3  A    between atoms: C_3  and  C_4
REMARK    4  A    between atoms: C_3  and  C_5
REMARK    5  A    between atoms: C_3  and  C_19
REMARK    6  A    between atoms: N_7  and  CA_8
REMARK    7  A    between atoms: CA_8  and  CB_9
REMARK    8  A    between atoms: CA_8  and  C_16
REMARK    9  A    between atoms: CB_9  and  CG_10
REMARK   10  A    between atoms: C_16  and  OXT_18
REMARK                            x       y       z     vdW  Elec       q    Type
REMARK                         _______ _______ _______ _____ _____    ______ ____
ROOT
ATOM      1  C   UNK A   0     -32.210 -12.318  16.582  0.00  0.00    +0.250 C 
ATOM      2  O   UNK A   0     -32.825 -13.262  17.152  0.00  0.00    -0.272 OA
ATOM      3  N   PHE A   1     -30.770 -12.329  16.535  0.00  0.00    -0.299 N 
ATOM      4  H   PHE A   1     -30.277 -11.456  16.248  0.00  0.00    +0.150 HD
ENDROOT
BRANCH   1   5
ATOM      5  C   UNK A   0     -32.993 -11.110  16.048  0.00  0.00    +0.166 C 
ATOM      6  C   UNK A   0     -32.076  -9.871  16.087  0.00  0.00    +0.057 C 
BRANCH   5   7
ATOM      7  C   UNK A   0     -33.424 -11.279  14.579  0.00  0.00    -0.007 A 
ATOM      8  C   UNK A   0     -34.521 -10.550  14.066  0.00  0.00    +0.007 A 
ATOM      9  C   UNK A   0     -34.956 -10.741  12.751  0.00  0.00    +0.000 A 
ATOM     10  C   UNK A   0     -34.333 -11.687  11.939  0.00  0.00    +0.000 A 
ATOM     11  C   UNK A   0     -33.278 -12.452  12.442  0.00  0.00    +0.000 A 
ATOM     12  C   UNK A   0     -32.836 -12.263  13.754  0.00  0.00    +0.007 A 
ENDBRANCH   5   7
BRANCH   5  14
ATOM     13  C   UNK A   0     -33.777  -9.973  17.983  0.00  0.00    +0.195 C 
ATOM     14  O   UNK A   0     -34.107 -10.818  16.893  0.00  0.00    -0.363 OA
ENDBRANCH   5  14
ENDBRANCH   1   5
BRANCH   3  15
ATOM     15  CA  PHE A   1     -29.927 -13.464  16.928  0.00  0.00    +0.186 C 
BRANCH  15  16
ATOM     16  C   PHE A   1     -29.968 -13.658  18.420  0.00  0.00    +0.326 C 
ATOM     17  O   PHE A   1     -29.082 -13.152  19.161  0.00  0.00    -0.249 OA
BRANCH  16  18
ATOM     18  OXT PHE A   1     -30.989 -14.416  18.986  0.00  0.00    -0.479 OA
ATOM     19  HXT PHE A   1     -31.958 -14.120  18.916  0.00  0.00    +0.295 HD
ENDBRANCH  16  18
ENDBRANCH  15  16
BRANCH  15  20
ATOM     20  CB  PHE A   1     -30.295 -14.747  16.150  0.00  0.00    +0.069 C 
BRANCH  20  21
ATOM     21  CG  PHE A   1     -29.660 -14.764  14.782  0.00  0.00    -0.045 A 
ATOM     22  CD1 PHE A   1     -28.259 -14.805  14.651  0.00  0.00    +0.004 A 
ATOM     23  CE1 PHE A   1     -27.672 -14.853  13.383  0.00  0.00    +0.000 A 
ATOM     24  CZ  PHE A   1     -28.476 -14.877  12.238  0.00  0.00    +0.000 A 
ATOM     25  CE2 PHE A   1     -29.868 -14.846  12.360  0.00  0.00    +0.000 A 
ATOM     26  CD2 PHE A   1     -30.460 -14.791  13.627  0.00  0.00    +0.004 A 
ENDBRANCH  20  21
ENDBRANCH  15  20
ENDBRANCH   3  15
TORSDOF 8
ENDMDL
MODEL 3
REMARK VINA RESULT:    -4.111      2.278      4.663
REMARK INTER + INTRA:          -8.846
REMARK INTER:                  -6.116
REMARK INTRA:                  -2.730
REMARK UNBOUND:                -2.932
REMARK  Name = 
REMARK  10 active torsions:
REMARK  status: ('A' for Active; 'I' for Inactive)
REMARK    1  A    between atoms: C_1  and  O_2
REMARK    2  A    between atoms: O_2  and  C_3
REMARK    3  A    between atoms: C_3  and  C_4
REMARK    4  A    between atoms: C_3  and  C_5
REMARK    5  A    between atoms: C_3  and  C_19
REMARK    6  A    between atoms: N_7  and  CA_8
REMARK    7  A    between atoms: CA_8  and  CB_9
REMARK    8  A    between atoms: CA_8  and  C_16
REMARK    9  A    between atoms: CB_9  and  CG_10
REMARK   10  A    between atoms: C_16  and  OXT_18
REMARK                            x       y       z     vdW  Elec       q    Type
REMARK                         _______ _______ _______ _____ _____    ______ ____
ROOT
ATOM      1  C   UNK A   0     -29.272 -13.387  18.042  0.00  0.00    +0.250 C 
ATOM      2  O   UNK A   0     -28.110 -12.922  17.877  0.00  0.00    -0.272 OA
ATOM      3  N   PHE A   1     -29.716 -13.746  19.365  0.00  0.00    -0.299 N 
ATOM      4  H   PHE A   1     -30.588 -14.312  19.459  0.00  0.00    +0.150 HD
ENDROOT
BRANCH   1   5
ATOM      5  C   UNK A   0     -30.159 -13.677  16.823  0.00  0.00    +0.166 C 
ATOM      6  C   UNK A   0     -30.974 -14.956  17.099  0.00  0.00    +0.057 C 
BRANCH   5   7
ATOM      7  C   UNK A   0     -31.187 -12.563  16.552  0.00  0.00    -0.007 A 
ATOM      8  C   UNK A   0     -30.778 -11.333  15.989  0.00  0.00    +0.007 A 
ATOM      9  C   UNK A   0     -31.694 -10.294  15.796  0.00  0.00    +0.000 A 
ATOM     10  C   UNK A   0     -33.021 -10.448  16.194  0.00  0.00    +0.000 A 
ATOM     11  C   UNK A   0     -33.434 -11.638  16.797  0.00  0.00    +0.000 A 
ATOM     12  C   UNK A   0     -32.525 -12.682  16.989  0.00  0.00    +0.007 A 
ENDBRANCH   5   7
BRANCH   5  14
ATOM     13  C   UNK A   0     -29.873 -14.993  14.864  0.00  0.00    +0.195 C 
ATOM     14  O   UNK A   0     -29.359 -13.946  15.671  0.00  0.00    -0.363 OA
ENDBRANCH   5  14
ENDBRANCH   1   5
BRANCH   3  15
ATOM     15  CA  PHE A   1     -28.996 -13.432  20.605  0.00  0.00    +0.186 C 
BRANCH  15  16
ATOM     16  C   PHE A   1     -27.743 -14.259  20.709  0.00  0.00    +0.326 C 
ATOM     17  O   PHE A   1     -27.578 -15.062  21.667  0.00  0.00    -0.249 OA
BRANCH  16  18
ATOM     18  OXT PHE A   1     -26.751 -14.126  19.742  0.00  0.00    -0.479 OA
ATOM     19  HXT PHE A   1     -26.162 -14.913  19.489  0.00  0.00    +0.295 HD
ENDBRANCH  16  18
ENDBRANCH  15  16
BRANCH  15  20
ATOM     20  CB  PHE A   1     -28.723 -11.917  20.742  0.00  0.00    +0.069 C 
BRANCH  20  21
ATOM     21  CG  PHE A   1     -29.973 -11.107  20.499  0.00  0.00    -0.045 A 
ATOM     22  CD1 PHE A   1     -29.936  -9.985  19.651  0.00  0.00    +0.004 A 
ATOM     23  CE1 PHE A   1     -31.101  -9.254  19.400  0.00  0.00    +0.000 A 
ATOM     24  CZ  PHE A   1     -32.313  -9.645  19.980  0.00  0.00    +0.000 A 
ATOM     25  CE2 PHE A   1     -32.359 -10.764  20.817  0.00  0.00    +0.000 A 
ATOM     26  CD2 PHE A   1     -31.194 -11.495  21.076  0.00  0.00    +0.004 A 
ENDBRANCH  20  21
ENDBRANCH  15  20
ENDBRANCH   3  15
TORSDOF 8
ENDMDL
MODEL 4
REMARK VINA RESULT:    -4.084      2.172      4.733
REMARK INTER + INTRA:          -8.806
REMARK INTER:                  -7.020
REMARK INTRA:                  -1.786
REMARK UNBOUND:                -2.932
REMARK  Name = 
REMARK  10 active torsions:
REMARK  status: ('A' for Active; 'I' for Inactive)
REMARK    1  A    between atoms: C_1  and  O_2
REMARK    2  A    between atoms: O_2  and  C_3
REMARK    3  A    between atoms: C_3  and  C_4
REMARK    4  A    between atoms: C_3  and  C_5
REMARK    5  A    between atoms: C_3  and  C_19
REMARK    6  A    between atoms: N_7  and  CA_8
REMARK    7  A    between atoms: CA_8  and  CB_9
REMARK    8  A    between atoms: CA_8  and  C_16
REMARK    9  A    between atoms: CB_9  and  CG_10
REMARK   10  A    between atoms: C_16  and  OXT_18
REMARK                            x       y       z     vdW  Elec       q    Type
REMARK                         _______ _______ _______ _____ _____    ______ ____
ROOT
ATOM      1  C   UNK A   0     -31.981 -10.216  16.221  0.00  0.00    +0.250 C 
ATOM      2  O   UNK A   0     -31.159  -9.521  15.561  0.00  0.00    -0.272 OA
ATOM      3  N   PHE A   1     -31.611 -10.718  17.520  0.00  0.00    -0.299 N 
ATOM      4  H   PHE A   1     -32.211 -11.451  17.957  0.00  0.00    +0.150 HD
ENDROOT
BRANCH   1   5
ATOM      5  C   UNK A   0     -33.320 -10.621  15.587  0.00  0.00    +0.166 C 
ATOM      6  C   UNK A   0     -34.015  -9.353  15.051  0.00  0.00    +0.057 C 
BRANCH   5   7
ATOM      7  C   UNK A   0     -33.149 -11.560  14.378  0.00  0.00    -0.007 A 
ATOM      8  C   UNK A   0     -31.927 -12.237  14.164  0.00  0.00    +0.007 A 
ATOM      9  C   UNK A   0     -31.743 -13.043  13.037  0.00  0.00    +0.000 A 
ATOM     10  C   UNK A   0     -32.756 -13.159  12.086  0.00  0.00    +0.000 A 
ATOM     11  C   UNK A   0     -33.953 -12.460  12.255  0.00  0.00    +0.000 A 
ATOM     12  C   UNK A   0     -34.145 -11.655  13.381  0.00  0.00    +0.007 A 
ENDBRANCH   5   7
BRANCH   5  14
ATOM     13  C   UNK A   0     -35.051 -10.222  17.165  0.00  0.00    +0.195 C 
ATOM     14  O   UNK A   0     -34.194 -11.181  16.567  0.00  0.00    -0.363 OA
ENDBRANCH   5  14
ENDBRANCH   1   5
BRANCH   3  15
ATOM     15  CA  PHE A   1     -30.405 -10.325  18.258  0.00  0.00    +0.186 C 
BRANCH  15  16
ATOM     16  C   PHE A   1     -30.754  -9.364  19.362  0.00  0.00    +0.326 C 
ATOM     17  O   PHE A   1     -31.951  -9.211  19.731  0.00  0.00    -0.249 OA
BRANCH  16  18
ATOM     18  OXT PHE A   1     -29.745  -8.626  19.973  0.00  0.00    -0.479 OA
ATOM     19  HXT PHE A   1     -29.651  -8.609  20.984  0.00  0.00    +0.295 HD
ENDBRANCH  16  18
ENDBRANCH  15  16
BRANCH  15  20
ATOM     20  CB  PHE A   1     -29.617 -11.554  18.764  0.00  0.00    +0.069 C 
BRANCH  20  21
ATOM     21  CG  PHE A   1     -29.850 -12.759  17.888  0.00  0.00    -0.045 A 
ATOM     22  CD1 PHE A   1     -31.003 -13.548  18.060  0.00  0.00    +0.004 A 
ATOM     23  CE1 PHE A   1     -31.235 -14.646  17.225  0.00  0.00    +0.000 A 
ATOM     24  CZ  PHE A   1     -30.329 -14.955  16.205  0.00  0.00    +0.000 A 
ATOM     25  CE2 PHE A   1     -29.186 -14.170  16.022  0.00  0.00    +0.000 A 
ATOM     26  CD2 PHE A   1     -28.946 -13.075  16.859  0.00  0.00    +0.004 A 
ENDBRANCH  20  21
ENDBRANCH  15  20
ENDBRANCH   3  15
TORSDOF 8
ENDMDL
MODEL 5
REMARK VINA RESULT:    -4.061      2.091      4.519
REMARK INTER + INTRA:          -8.773
REMARK INTER:                  -5.941
REMARK INTRA:                  -2.832
REMARK UNBOUND:                -2.932
REMARK  Name = 
REMARK  10 active torsions:
REMARK  status: ('A' for Active; 'I' for Inactive)
REMARK    1  A    between atoms: C_1  and  O_2
REMARK    2  A    between atoms: O_2  and  C_3
REMARK    3  A    between atoms: C_3  and  C_4
REMARK    4  A    between atoms: C_3  and  C_5
REMARK    5  A    between atoms: C_3  and  C_19
REMARK    6  A    between atoms: N_7  and  CA_8
REMARK    7  A    between atoms: CA_8  and  CB_9
REMARK    8  A    between atoms: CA_8  and  C_16
REMARK    9  A    between atoms: CB_9  and  CG_10
REMARK   10  A    between atoms: C_16  and  OXT_18
REMARK                            x       y       z     vdW  Elec       q    Type
REMARK                         _______ _______ _______ _____ _____    ______ ____
ROOT
ATOM      1  C   UNK A   0     -32.247 -10.209  16.657  0.00  0.00    +0.250 C 
ATOM      2  O   UNK A   0     -31.952  -9.245  15.896  0.00  0.00    -0.272 OA
ATOM      3  N   PHE A   1     -31.877 -10.159  18.048  0.00  0.00    -0.299 N 
ATOM      4  H   PHE A   1     -31.943 -11.036  18.610  0.00  0.00    +0.150 HD
ENDROOT
BRANCH   1   5
ATOM      5  C   UNK A   0     -32.890 -11.474  16.071  0.00  0.00    +0.166 C 
ATOM      6  C   UNK A   0     -33.246 -11.208  14.595  0.00  0.00    +0.057 C 
BRANCH   5   7
ATOM      7  C   UNK A   0     -31.936 -12.684  16.071  0.00  0.00    -0.007 A 
ATOM      8  C   UNK A   0     -31.944 -13.603  17.144  0.00  0.00    +0.007 A 
ATOM      9  C   UNK A   0     -31.040 -14.669  17.181  0.00  0.00    +0.000 A 
ATOM     10  C   UNK A   0     -30.090 -14.816  16.171  0.00  0.00    +0.000 A 
ATOM     11  C   UNK A   0     -30.034 -13.891  15.127  0.00  0.00    +0.000 A 
ATOM     12  C   UNK A   0     -30.937 -12.825  15.082  0.00  0.00    +0.007 A 
ENDBRANCH   5   7
BRANCH   5  14
ATOM     13  C   UNK A   0     -35.062 -10.719  16.668  0.00  0.00    +0.195 C 
ATOM     14  O   UNK A   0     -34.116 -11.772  16.738  0.00  0.00    -0.363 OA
ENDBRANCH   5  14
ENDBRANCH   1   5
BRANCH   3  15
ATOM     15  CA  PHE A   1     -31.346  -8.975  18.733  0.00  0.00    +0.186 C 
BRANCH  15  16
ATOM     16  C   PHE A   1     -32.469  -8.078  19.181  0.00  0.00    +0.326 C 
ATOM     17  O   PHE A   1     -33.352  -8.498  19.977  0.00  0.00    -0.249 OA
BRANCH  16  18
ATOM     18  OXT PHE A   1     -32.538  -6.774  18.701  0.00  0.00    -0.479 OA
ATOM     19  HXT PHE A   1     -33.432  -6.346  18.482  0.00  0.00    +0.295 HD
ENDBRANCH  16  18
ENDBRANCH  15  16
BRANCH  15  20
ATOM     20  CB  PHE A   1     -30.393  -9.359  19.887  0.00  0.00    +0.069 C 
BRANCH  20  21
ATOM     21  CG  PHE A   1     -29.671 -10.651  19.599  0.00  0.00    -0.045 A 
ATOM     22  CD1 PHE A   1     -28.783 -10.740  18.510  0.00  0.00    +0.004 A 
ATOM     23  CE1 PHE A   1     -28.089 -11.929  18.264  0.00  0.00    +0.000 A 
ATOM     24  CZ  PHE A   1     -28.262 -13.031  19.108  0.00  0.00    +0.000 A 
ATOM     25  CE2 PHE A   1     -29.136 -12.947  20.197  0.00  0.00    +0.000 A 
ATOM     26  CD2 PHE A   1     -29.838 -11.762  20.444  0.00  0.00    +0.004 A 
ENDBRANCH  20  21
ENDBRANCH  15  20
ENDBRANCH   3  15
TORSDOF 8
ENDMDL
MODEL 6
REMARK VINA RESULT:    -4.030      2.059      4.816
REMARK INTER + INTRA:          -8.728
REMARK INTER:                  -5.911
REMARK INTRA:                  -2.817
REMARK UNBOUND:                -2.932
REMARK  Name = 
REMARK  10 active torsions:
REMARK  status: ('A' for Active; 'I' for Inactive)
REMARK    1  A    between atoms: C_1  and  O_2
REMARK    2  A    between atoms: O_2  and  C_3
REMARK    3  A    between atoms: C_3  and  C_4
REMARK    4  A    between atoms: C_3  and  C_5
REMARK    5  A    between atoms: C_3  and  C_19
REMARK    6  A    between atoms: N_7  and  CA_8
REMARK    7  A    between atoms: CA_8  and  CB_9
REMARK    8  A    between atoms: CA_8  and  C_16
REMARK    9  A    between atoms: CB_9  and  CG_10
REMARK   10  A    between atoms: C_16  and  OXT_18
REMARK                            x       y       z     vdW  Elec       q    Type
REMARK                         _______ _______ _______ _____ _____    ______ ____
ROOT
ATOM      1  C   UNK A   0     -29.161 -13.325  16.717  0.00  0.00    +0.250 C 
ATOM      2  O   UNK A   0     -28.138 -14.017  16.455  0.00  0.00    -0.272 OA
ATOM      3  N   PHE A   1     -29.237 -12.606  17.963  0.00  0.00    -0.299 N 
ATOM      4  H   PHE A   1     -30.158 -12.211  18.252  0.00  0.00    +0.150 HD
ENDROOT
BRANCH   1   5
ATOM      5  C   UNK A   0     -30.363 -13.349  15.762  0.00  0.00    +0.166 C 
ATOM      6  C   UNK A   0     -31.108 -14.687  15.941  0.00  0.00    +0.057 C 
BRANCH   5   7
ATOM      7  C   UNK A   0     -31.390 -12.242  16.067  0.00  0.00    -0.007 A 
ATOM      8  C   UNK A   0     -32.716 -12.573  16.425  0.00  0.00    +0.007 A 
ATOM      9  C   UNK A   0     -33.670 -11.575  16.644  0.00  0.00    +0.000 A 
ATOM     10  C   UNK A   0     -33.331 -10.234  16.475  0.00  0.00    +0.000 A 
ATOM     11  C   UNK A   0     -32.039  -9.887  16.074  0.00  0.00    +0.000 A 
ATOM     12  C   UNK A   0     -31.079 -10.880  15.857  0.00  0.00    +0.007 A 
ENDBRANCH   5   7
BRANCH   5  14
ATOM     13  C   UNK A   0     -30.282 -14.461  13.664  0.00  0.00    +0.195 C 
ATOM     14  O   UNK A   0     -29.929 -13.303  14.403  0.00  0.00    -0.363 OA
ENDBRANCH   5  14
ENDBRANCH   1   5
BRANCH   3  15
ATOM     15  CA  PHE A   1     -28.122 -12.438  18.903  0.00  0.00    +0.186 C 
BRANCH  15  16
ATOM     16  C   PHE A   1     -27.164 -11.392  18.401  0.00  0.00    +0.326 C 
ATOM     17  O   PHE A   1     -27.568 -10.438  17.680  0.00  0.00    -0.249 OA
BRANCH  16  18
ATOM     18  OXT PHE A   1     -25.814 -11.485  18.727  0.00  0.00    -0.479 OA
ATOM     19  HXT PHE A   1     -25.493 -12.138  19.434  0.00  0.00    +0.295 HD
ENDBRANCH  16  18
ENDBRANCH  15  16
BRANCH  15  20
ATOM     20  CB  PHE A   1     -28.620 -12.152  20.337  0.00  0.00    +0.069 C 
BRANCH  20  21
ATOM     21  CG  PHE A   1     -29.999 -11.540  20.331  0.00  0.00    -0.045 A 
ATOM     22  CD1 PHE A   1     -30.156 -10.149  20.190  0.00  0.00    +0.004 A 
ATOM     23  CE1 PHE A   1     -31.436  -9.585  20.152  0.00  0.00    +0.000 A 
ATOM     24  CZ  PHE A   1     -32.566 -10.406  20.237  0.00  0.00    +0.000 A 
ATOM     25  CE2 PHE A   1     -32.417 -11.790  20.368  0.00  0.00    +0.000 A 
ATOM     26  CD2 PHE A   1     -31.140 -12.357  20.413  0.00  0.00    +0.004 A 
ENDBRANCH  20  21
ENDBRANCH  15  20
ENDBRANCH   3  15
TORSDOF 8
ENDMDL
MODEL 7
REMARK VINA RESULT:    -3.946      2.180      4.257
REMARK INTER + INTRA:          -8.608
REMARK INTER:                  -5.656
REMARK INTRA:                  -2.952
REMARK UNBOUND:                -2.932
REMARK  Name = 
REMARK  10 active torsions:
REMARK  status: ('A' for Active; 'I' for Inactive)
REMARK    1  A    between atoms: C_1  and  O_2
REMARK    2  A    between atoms: O_2  and  C_3
REMARK    3  A    between atoms: C_3  and  C_4
REMARK    4  A    between atoms: C_3  and  C_5
REMARK    5  A    between atoms: C_3  and  C_19
REMARK    6  A    between atoms: N_7  and  CA_8
REMARK    7  A    between atoms: CA_8  and  CB_9
REMARK    8  A    between atoms: CA_8  and  C_16
REMARK    9  A    between atoms: CB_9  and  CG_10
REMARK   10  A    between atoms: C_16  and  OXT_18
REMARK                            x       y       z     vdW  Elec       q    Type
REMARK                         _______ _______ _______ _____ _____    ______ ____
ROOT
ATOM      1  C   UNK A   0     -32.060 -10.177  19.047  0.00  0.00    +0.250 C 
ATOM      2  O   UNK A   0     -33.129 -10.441  19.666  0.00  0.00    -0.272 OA
ATOM      3  N   PHE A   1     -32.041 -10.214  17.607  0.00  0.00    -0.299 N 
ATOM      4  H   PHE A   1     -31.117 -10.197  17.122  0.00  0.00    +0.150 HD
ENDROOT
BRANCH   1   5
ATOM      5  C   UNK A   0     -30.763  -9.935  19.832  0.00  0.00    +0.166 C 
ATOM      6  C   UNK A   0     -31.081  -9.995  21.340  0.00  0.00    +0.057 C 
BRANCH   5   7
ATOM      7  C   UNK A   0     -29.698 -11.018  19.575  0.00  0.00    -0.007 A 
ATOM      8  C   UNK A   0     -29.621 -12.158  20.406  0.00  0.00    +0.007 A 
ATOM      9  C   UNK A   0     -28.620 -13.116  20.217  0.00  0.00    +0.000 A 
ATOM     10  C   UNK A   0     -27.659 -12.937  19.223  0.00  0.00    +0.000 A 
ATOM     11  C   UNK A   0     -27.689 -11.793  18.423  0.00  0.00    +0.000 A 
ATOM     12  C   UNK A   0     -28.689 -10.833  18.604  0.00  0.00    +0.007 A 
ENDBRANCH   5   7
BRANCH   5  14
ATOM     13  C   UNK A   0     -30.810  -7.633  20.422  0.00  0.00    +0.195 C 
ATOM     14  O   UNK A   0     -30.254  -8.626  19.575  0.00  0.00    -0.363 OA
ENDBRANCH   5  14
ENDBRANCH   1   5
BRANCH   3  15
ATOM     15  CA  PHE A   1     -33.230 -10.343  16.756  0.00  0.00    +0.186 C 
BRANCH  15  16
ATOM     16  C   PHE A   1     -33.630  -9.001  16.204  0.00  0.00    +0.326 C 
ATOM     17  O   PHE A   1     -34.014  -8.883  15.009  0.00  0.00    -0.249 OA
BRANCH  16  18
ATOM     18  OXT PHE A   1     -33.565  -7.877  17.021  0.00  0.00    -0.479 OA
ATOM     19  HXT PHE A   1     -32.923  -7.840  17.806  0.00  0.00    +0.295 HD
ENDBRANCH  16  18
ENDBRANCH  15  16
BRANCH  15  20
ATOM     20  CB  PHE A   1     -33.033 -11.407  15.653  0.00  0.00    +0.069 C 
BRANCH  20  21
ATOM     21  CG  PHE A   1     -32.026 -12.451  16.067  0.00  0.00    -0.045 A 
ATOM     22  CD1 PHE A   1     -32.313 -13.330  17.128  0.00  0.00    +0.004 A 
ATOM     23  CE1 PHE A   1     -31.394 -14.320  17.490  0.00  0.00    +0.000 A 
ATOM     24  CZ  PHE A   1     -30.191 -14.450  16.788  0.00  0.00    +0.000 A 
ATOM     25  CE2 PHE A   1     -29.903 -13.586  15.727  0.00  0.00    +0.000 A 
ATOM     26  CD2 PHE A   1     -30.816 -12.590  15.365  0.00  0.00    +0.004 A 
ENDBRANCH  20  21
ENDBRANCH  15  20
ENDBRANCH   3  15
TORSDOF 8
ENDMDL
MODEL 8
REMARK VINA RESULT:    -3.750      2.187      4.530
REMARK INTER + INTRA:          -8.326
REMARK INTER:                  -6.708
REMARK INTRA:                  -1.617
REMARK UNBOUND:                -2.932
REMARK  Name = 
REMARK  10 active torsions:
REMARK  status: ('A' for Active; 'I' for Inactive)
REMARK    1  A    between atoms: C_1  and  O_2
REMARK    2  A    between atoms: O_2  and  C_3
REMARK    3  A    between atoms: C_3  and  C_4
REMARK    4  A    between atoms: C_3  and  C_5
REMARK    5  A    between atoms: C_3  and  C_19
REMARK    6  A    between atoms: N_7  and  CA_8
REMARK    7  A    between atoms: CA_8  and  CB_9
REMARK    8  A    between atoms: CA_8  and  C_16
REMARK    9  A    between atoms: CB_9  and  CG_10
REMARK   10  A    between atoms: C_16  and  OXT_18
REMARK                            x       y       z     vdW  Elec       q    Type
REMARK                         _______ _______ _______ _____ _____    ______ ____
ROOT
ATOM      1  C   UNK A   0     -30.543 -13.234  17.638  0.00  0.00    +0.250 C 
ATOM      2  O   UNK A   0     -30.887 -14.274  18.267  0.00  0.00    -0.272 OA
ATOM      3  N   PHE A   1     -29.682 -12.268  18.271  0.00  0.00    -0.299 N 
ATOM      4  H   PHE A   1     -29.575 -11.331  17.825  0.00  0.00    +0.150 HD
ENDROOT
BRANCH   1   5
ATOM      5  C   UNK A   0     -31.139 -12.949  16.252  0.00  0.00    +0.166 C 
ATOM      6  C   UNK A   0     -30.953 -11.453  15.933  0.00  0.00    +0.057 C 
BRANCH   5   7
ATOM      7  C   UNK A   0     -30.425 -13.720  15.125  0.00  0.00    -0.007 A 
ATOM      8  C   UNK A   0     -29.189 -14.360  15.367  0.00  0.00    +0.007 A 
ATOM      9  C   UNK A   0     -28.505 -15.010  14.335  0.00  0.00    +0.000 A 
ATOM     10  C   UNK A   0     -29.020 -15.001  13.040  0.00  0.00    +0.000 A 
ATOM     11  C   UNK A   0     -30.216 -14.333  12.770  0.00  0.00    +0.000 A 
ATOM     12  C   UNK A   0     -30.906 -13.684  13.797  0.00  0.00    +0.007 A 
ENDBRANCH   5   7
BRANCH   5  14
ATOM     13  C   UNK A   0     -33.306 -12.101  16.730  0.00  0.00    +0.195 C 
ATOM     14  O   UNK A   0     -32.545 -13.195  16.247  0.00  0.00    -0.363 OA
ENDBRANCH   5  14
ENDBRANCH   1   5
BRANCH   3  15
ATOM     15  CA  PHE A   1     -28.986 -12.475  19.546  0.00  0.00    +0.186 C 
BRANCH  15  16
ATOM     16  C   PHE A   1     -27.521 -12.729  19.310  0.00  0.00    +0.326 C 
ATOM     17  O   PHE A   1     -26.728 -11.775  19.084  0.00  0.00    -0.249 OA
BRANCH  16  18
ATOM     18  OXT PHE A   1     -27.040 -14.035  19.331  0.00  0.00    -0.479 OA
ATOM     19  HXT PHE A   1     -26.054 -14.229  19.184  0.00  0.00    +0.295 HD
ENDBRANCH  16  18
ENDBRANCH  15  16
BRANCH  15  20
ATOM     20  CB  PHE A   1     -29.237 -11.313  20.532  0.00  0.00    +0.069 C 
BRANCH  20  21
ATOM     21  CG  PHE A   1     -30.523 -10.590  20.217  0.00  0.00    -0.045 A 
ATOM     22  CD1 PHE A   1     -30.502  -9.404  19.458  0.00  0.00    +0.004 A 
ATOM     23  CE1 PHE A   1     -31.697  -8.752  19.138  0.00  0.00    +0.000 A 
ATOM     24  CZ  PHE A   1     -32.921  -9.285  19.557  0.00  0.00    +0.000 A 
ATOM     25  CE2 PHE A   1     -32.950 -10.467  20.303  0.00  0.00    +0.000 A 
ATOM     26  CD2 PHE A   1     -31.757 -11.120  20.632  0.00  0.00    +0.004 A 
ENDBRANCH  20  21
ENDBRANCH  15  20
ENDBRANCH   3  15
TORSDOF 8
ENDMDL
