MODEL 1
REMARK VINA RESULT:    -4.952      0.000      0.000
REMARK INTER + INTRA:          -6.440
REMARK INTER:                  -6.110
REMARK INTRA:                  -0.330
REMARK UNBOUND:                -0.330
REMARK  Name = 
REMARK  4 active torsions:
REMARK  status: ('A' for Active; 'I' for Inactive)
REMARK    1  A    between atoms: C_2  and  C_3
REMARK    2  A    between atoms: N_13  and  C_14
REMARK    3  A    between atoms: C_14  and  C_15
REMARK    4  A    between atoms: C_19  and  N_21
REMARK                            x       y       z     vdW  Elec       q    Type
REMARK                         _______ _______ _______ _____ _____    ______ ____
ROOT
ATOM      1  C   UNL     1     -27.267 -13.119  20.173  0.00  0.00    +0.052 A 
ATOM      2  C   UNL     1     -28.430 -13.613  20.779  0.00  0.00    +0.021 A 
ATOM      3  C   UNL     1     -29.687 -13.180  20.346  0.00  0.00    +0.029 A 
ATOM      4  C   UNL     1     -29.789 -12.251  19.306  0.00  0.00    +0.073 A 
ATOM      5  N   UNL     1     -31.010 -11.827  18.884  0.00  0.00    -0.232 NA
ATOM      6  C   UNL     1     -31.159 -10.922  17.877  0.00  0.00    +0.120 A 
ATOM      7  C   UNL     1     -30.015 -10.409  17.240  0.00  0.00    +0.044 A 
ATOM      8  C   UNL     1     -28.747 -10.823  17.652  0.00  0.00    +0.013 A 
ATOM      9  C   UNL     1     -28.620 -11.751  18.692  0.00  0.00    +0.002 A 
ATOM     10  C   UNL     1     -27.361 -12.188  19.130  0.00  0.00    +0.029 A 
ATOM     11  N   UNL     1     -32.488 -10.525  17.496  0.00  0.00    -0.325 N 
ATOM     12  H   UNL     1     -33.292 -11.015  17.948  0.00  0.00    +0.148 HD
ENDROOT
BRANCH   1  14
ATOM     13  N   UNL     1     -24.938 -13.930  20.984  0.00  0.00    -0.191 NA
ATOM     14  C   UNL     1     -25.975 -13.569  20.623  0.00  0.00    +0.099 C 
ENDBRANCH   1  14
BRANCH  11  15
ATOM     15  C   UNL     1     -32.796  -9.441  16.561  0.00  0.00    +0.138 C 
BRANCH  15  16
ATOM     16  C   UNL     1     -33.437  -9.984  15.310  0.00  0.00    -0.028 A 
ATOM     17  C   UNL     1     -34.476  -9.281  14.680  0.00  0.00    +0.005 A 
ATOM     18  C   UNL     1     -35.062  -9.786  13.519  0.00  0.00    +0.003 A 
ATOM     19  C   UNL     1     -34.613 -10.989  12.970  0.00  0.00    +0.033 A 
ATOM     20  C   UNL     1     -33.566 -11.702  13.576  0.00  0.00    +0.127 A 
ATOM     21  C   UNL     1     -32.979 -11.187  14.748  0.00  0.00    +0.038 A 
BRANCH  20  22
ATOM     22  N   UNL     1     -33.102 -12.940  13.006  0.00  0.00    +0.056 N 
ATOM     23  O   UNL     1     -33.769 -13.516  11.950  0.00  0.00    -0.126 OA
ATOM     24  O   UNL     1     -32.089 -13.512  13.461  0.00  0.00    -0.126 OA
ENDBRANCH  20  22
ENDBRANCH  15  16
ENDBRANCH  11  15
TORSDOF 4
ENDMDL
MODEL 2
REMARK VINA RESULT:    -4.248      4.629      6.280
REMARK INTER + INTRA:          -5.572
REMARK INTER:                  -5.314
REMARK INTRA:                  -0.258
REMARK UNBOUND:                -0.330
REMARK  Name = 
REMARK  4 active torsions:
REMARK  status: ('A' for Active; 'I' for Inactive)
REMARK    1  A    between atoms: C_2  and  C_3
REMARK    2  A    between atoms: N_13  and  C_14
REMARK    3  A    between atoms: C_14  and  C_15
REMARK    4  A    between atoms: C_19  and  N_21
REMARK                            x       y       z     vdW  Elec       q    Type
REMARK                         _______ _______ _______ _____ _____    ______ ____
ROOT
ATOM      1  C   UNL     1     -30.161 -14.099  13.825  0.00  0.00    +0.052 A 
ATOM      2  C   UNL     1     -30.150 -14.687  15.097  0.00  0.00    +0.021 A 
ATOM      3  C   UNL     1     -30.955 -14.172  16.118  0.00  0.00    +0.029 A 
ATOM      4  C   UNL     1     -31.777 -13.067  15.873  0.00  0.00    +0.073 A 
ATOM      5  N   UNL     1     -32.560 -12.564  16.864  0.00  0.00    -0.232 NA
ATOM      6  C   UNL     1     -33.374 -11.488  16.673  0.00  0.00    +0.120 A 
ATOM      7  C   UNL     1     -33.418 -10.876  15.408  0.00  0.00    +0.044 A 
ATOM      8  C   UNL     1     -32.624 -11.369  14.371  0.00  0.00    +0.013 A 
ATOM      9  C   UNL     1     -31.792 -12.472  14.593  0.00  0.00    +0.002 A 
ATOM     10  C   UNL     1     -30.982 -12.992  13.572  0.00  0.00    +0.029 A 
ATOM     11  N   UNL     1     -34.167 -11.018  17.777  0.00  0.00    -0.325 N 
ATOM     12  H   UNL     1     -34.155 -11.577  18.660  0.00  0.00    +0.148 HD
ENDROOT
BRANCH   1  14
ATOM     13  N   UNL     1     -28.661 -15.062  11.938  0.00  0.00    -0.191 NA
ATOM     14  C   UNL     1     -29.329 -14.634  12.778  0.00  0.00    +0.099 C 
ENDBRANCH   1  14
BRANCH  11  15
ATOM     15  C   UNL     1     -34.947  -9.779  17.773  0.00  0.00    +0.138 C 
BRANCH  15  16
ATOM     16  C   UNL     1     -34.156  -8.650  18.379  0.00  0.00    -0.028 A 
ATOM     17  C   UNL     1     -34.713  -7.366  18.484  0.00  0.00    +0.005 A 
ATOM     18  C   UNL     1     -33.977  -6.325  19.052  0.00  0.00    +0.003 A 
ATOM     19  C   UNL     1     -32.684  -6.555  19.528  0.00  0.00    +0.033 A 
ATOM     20  C   UNL     1     -32.112  -7.835  19.446  0.00  0.00    +0.127 A 
ATOM     21  C   UNL     1     -32.860  -8.881  18.871  0.00  0.00    +0.038 A 
BRANCH  20  22
ATOM     22  N   UNL     1     -30.781  -8.071  19.941  0.00  0.00    +0.056 N 
ATOM     23  O   UNL     1     -30.174  -9.292  19.759  0.00  0.00    -0.126 OA
ATOM     24  O   UNL     1     -30.157  -7.174  20.546  0.00  0.00    -0.126 OA
ENDBRANCH  20  22
ENDBRANCH  15  16
ENDBRANCH  11  15
TORSDOF 4
ENDMDL
MODEL 3
REMARK VINA RESULT:    -4.245      3.126      3.746
REMARK INTER + INTRA:          -5.568
REMARK INTER:                  -5.179
REMARK INTRA:                  -0.389
REMARK UNBOUND:                -0.330
REMARK  Name = 
REMARK  4 active torsions:
REMARK  status: ('A' for Active; 'I' for Inactive)
REMARK    1  A    between atoms: C_2  and  C_3
REMARK    2  A    between atoms: N_13  and  C_14
REMARK    3  A    between atoms: C_14  and  C_15
REMARK    4  A    between atoms: C_19  and  N_21
REMARK                            x       y       z     vdW  Elec       q    Type
REMARK                         _______ _______ _______ _____ _____    ______ ____
ROOT
ATOM      1  C   UNL     1     -27.414 -13.374  20.246  0.00  0.00    +0.052 A 
ATOM      2  C   UNL     1     -28.425 -13.374  21.216  0.00  0.00    +0.021 A 
ATOM      3  C   UNL     1     -29.760 -13.197  20.841  0.00  0.00    +0.029 A 
ATOM      4  C   UNL     1     -30.092 -13.018  19.494  0.00  0.00    +0.073 A 
ATOM      5  N   UNL     1     -31.390 -12.844  19.127  0.00  0.00    -0.232 NA
ATOM      6  C   UNL     1     -31.762 -12.664  17.829  0.00  0.00    +0.120 A 
ATOM      7  C   UNL     1     -30.776 -12.665  16.826  0.00  0.00    +0.044 A 
ATOM      8  C   UNL     1     -29.435 -12.839  17.172  0.00  0.00    +0.013 A 
ATOM      9  C   UNL     1     -29.078 -13.018  18.513  0.00  0.00    +0.002 A 
ATOM     10  C   UNL     1     -27.739 -13.196  18.894  0.00  0.00    +0.029 A 
ATOM     11  N   UNL     1     -33.156 -12.483  17.528  0.00  0.00    -0.325 N 
ATOM     12  H   UNL     1     -33.842 -12.587  18.310  0.00  0.00    +0.148 HD
ENDROOT
BRANCH   1  14
ATOM     13  N   UNL     1     -24.938 -13.704  20.953  0.00  0.00    -0.191 NA
ATOM     14  C   UNL     1     -26.040 -13.557  20.638  0.00  0.00    +0.099 C 
ENDBRANCH   1  14
BRANCH  11  15
ATOM     15  C   UNL     1     -33.683 -12.107  16.215  0.00  0.00    +0.138 C 
BRANCH  15  16
ATOM     16  C   UNL     1     -34.059 -10.649  16.190  0.00  0.00    -0.028 A 
ATOM     17  C   UNL     1     -34.319 -10.001  14.972  0.00  0.00    +0.005 A 
ATOM     18  C   UNL     1     -34.673  -8.651  14.956  0.00  0.00    +0.003 A 
ATOM     19  C   UNL     1     -34.779  -7.937  16.151  0.00  0.00    +0.033 A 
ATOM     20  C   UNL     1     -34.536  -8.568  17.382  0.00  0.00    +0.127 A 
ATOM     21  C   UNL     1     -34.180  -9.931  17.391  0.00  0.00    +0.038 A 
BRANCH  20  22
ATOM     22  N   UNL     1     -34.651  -7.832  18.613  0.00  0.00    +0.056 N 
ATOM     23  O   UNL     1     -34.380  -8.437  19.819  0.00  0.00    -0.126 OA
ATOM     24  O   UNL     1     -35.001  -6.633  18.610  0.00  0.00    -0.126 OA
ENDBRANCH  20  22
ENDBRANCH  15  16
ENDBRANCH  11  15
TORSDOF 4
ENDMDL
MODEL 4
REMARK VINA RESULT:    -4.036      4.657      6.763
REMARK INTER + INTRA:          -5.311
REMARK INTER:                  -4.933
REMARK INTRA:                  -0.378
REMARK UNBOUND:                -0.330
REMARK  Name = 
REMARK  4 active torsions:
REMARK  status: ('A' for Active; 'I' for Inactive)
REMARK    1  A    between atoms: C_2  and  C_3
REMARK    2  A    between atoms: N_13  and  C_14
REMARK    3  A    between atoms: C_14  and  C_15
REMARK    4  A    between atoms: C_19  and  N_21
REMARK                            x       y       z     vdW  Elec       q    Type
REMARK                         _______ _______ _______ _____ _____    ______ ____
ROOT
ATOM      1  C   UNL     1     -29.319 -14.219  13.720  0.00  0.00    +0.052 A 
ATOM      2  C   UNL     1     -30.645 -13.954  13.352  0.00  0.00    +0.021 A 
ATOM      3  C   UNL     1     -31.563 -13.499  14.304  0.00  0.00    +0.029 A 
ATOM      4  C   UNL     1     -31.161 -13.307  15.629  0.00  0.00    +0.073 A 
ATOM      5  N   UNL     1     -32.051 -12.867  16.557  0.00  0.00    -0.232 NA
ATOM      6  C   UNL     1     -31.707 -12.667  17.860  0.00  0.00    +0.120 A 
ATOM      7  C   UNL     1     -30.384 -12.915  18.266  0.00  0.00    +0.044 A 
ATOM      8  C   UNL     1     -29.446 -13.370  17.337  0.00  0.00    +0.013 A 
ATOM      9  C   UNL     1     -29.826 -13.572  16.005  0.00  0.00    +0.002 A 
ATOM     10  C   UNL     1     -28.909 -14.028  15.046  0.00  0.00    +0.029 A 
ATOM     11  N   UNL     1     -32.713 -12.202  18.777  0.00  0.00    -0.325 N 
ATOM     12  H   UNL     1     -33.649 -11.950  18.388  0.00  0.00    +0.148 HD
ENDROOT
BRANCH   1  14
ATOM     13  N   UNL     1     -27.624 -15.062  11.944  0.00  0.00    -0.191 NA
ATOM     14  C   UNL     1     -28.379 -14.687  12.735  0.00  0.00    +0.099 C 
ENDBRANCH   1  14
BRANCH  11  15
ATOM     15  C   UNL     1     -32.538 -12.112  20.228  0.00  0.00    +0.138 C 
BRANCH  15  16
ATOM     16  C   UNL     1     -32.813 -10.712  20.711  0.00  0.00    -0.028 A 
ATOM     17  C   UNL     1     -33.859 -10.462  21.613  0.00  0.00    +0.005 A 
ATOM     18  C   UNL     1     -34.105  -9.163  22.061  0.00  0.00    +0.003 A 
ATOM     19  C   UNL     1     -33.307  -8.105  21.623  0.00  0.00    +0.033 A 
ATOM     20  C   UNL     1     -32.247  -8.334  20.730  0.00  0.00    +0.127 A 
ATOM     21  C   UNL     1     -32.004  -9.647  20.281  0.00  0.00    +0.038 A 
BRANCH  20  22
ATOM     22  N   UNL     1     -31.423  -7.241  20.283  0.00  0.00    +0.056 N 
ATOM     23  O   UNL     1     -30.091  -7.186  20.622  0.00  0.00    -0.126 OA
ATOM     24  O   UNL     1     -31.903  -6.325  19.582  0.00  0.00    -0.126 OA
ENDBRANCH  20  22
ENDBRANCH  15  16
ENDBRANCH  11  15
TORSDOF 4
ENDMDL
MODEL 5
REMARK VINA RESULT:    -3.818      3.369      5.421
REMARK INTER + INTRA:          -5.041
REMARK INTER:                  -4.647
REMARK INTRA:                  -0.394
REMARK UNBOUND:                -0.330
REMARK  Name = 
REMARK  4 active torsions:
REMARK  status: ('A' for Active; 'I' for Inactive)
REMARK    1  A    between atoms: C_2  and  C_3
REMARK    2  A    between atoms: N_13  and  C_14
REMARK    3  A    between atoms: C_14  and  C_15
REMARK    4  A    between atoms: C_19  and  N_21
REMARK                            x       y       z     vdW  Elec       q    Type
REMARK                         _______ _______ _______ _____ _____    ______ ____
ROOT
ATOM      1  C   UNL     1     -32.074  -7.531  19.912  0.00  0.00    +0.052 A 
ATOM      2  C   UNL     1     -33.306  -7.962  19.401  0.00  0.00    +0.021 A 
ATOM      3  C   UNL     1     -33.417  -9.221  18.801  0.00  0.00    +0.029 A 
ATOM      4  C   UNL     1     -32.299 -10.055  18.708  0.00  0.00    +0.073 A 
ATOM      5  N   UNL     1     -32.404 -11.278  18.123  0.00  0.00    -0.232 NA
ATOM      6  C   UNL     1     -31.343 -12.123  18.007  0.00  0.00    +0.120 A 
ATOM      7  C   UNL     1     -30.092 -11.729  18.514  0.00  0.00    +0.044 A 
ATOM      8  C   UNL     1     -29.951 -10.478  19.118  0.00  0.00    +0.013 A 
ATOM      9  C   UNL     1     -31.056  -9.625  19.221  0.00  0.00    +0.002 A 
ATOM     10  C   UNL     1     -30.949  -8.362  19.822  0.00  0.00    +0.029 A 
ATOM     11  N   UNL     1     -31.542 -13.398  17.371  0.00  0.00    -0.325 N 
ATOM     12  H   UNL     1     -32.516 -13.663  17.102  0.00  0.00    +0.148 HD
ENDROOT
BRANCH   1  14
ATOM     13  N   UNL     1     -31.877  -5.194  21.024  0.00  0.00    -0.191 NA
ATOM     14  C   UNL     1     -31.965  -6.235  20.529  0.00  0.00    +0.099 C 
ENDBRANCH   1  14
BRANCH  11  15
ATOM     15  C   UNL     1     -30.468 -14.329  17.020  0.00  0.00    +0.138 C 
BRANCH  15  16
ATOM     16  C   UNL     1     -30.220 -14.321  15.535  0.00  0.00    -0.028 A 
ATOM     17  C   UNL     1     -29.037 -14.860  15.006  0.00  0.00    +0.005 A 
ATOM     18  C   UNL     1     -28.815 -14.854  13.628  0.00  0.00    +0.003 A 
ATOM     19  C   UNL     1     -29.774 -14.322  12.764  0.00  0.00    +0.033 A 
ATOM     20  C   UNL     1     -30.972 -13.790  13.269  0.00  0.00    +0.127 A 
ATOM     21  C   UNL     1     -31.188 -13.798  14.661  0.00  0.00    +0.038 A 
BRANCH  20  22
ATOM     22  N   UNL     1     -31.960 -13.245  12.376  0.00  0.00    +0.056 N 
ATOM     23  O   UNL     1     -33.042 -14.000  11.987  0.00  0.00    -0.126 OA
ATOM     24  O   UNL     1     -31.852 -12.081  11.938  0.00  0.00    -0.126 OA
ENDBRANCH  20  22
ENDBRANCH  15  16
ENDBRANCH  11  15
TORSDOF 4
ENDMDL
MODEL 6
REMARK VINA RESULT:    -3.759      2.904      8.125
REMARK INTER + INTRA:          -4.968
REMARK INTER:                  -4.730
REMARK INTRA:                  -0.238
REMARK UNBOUND:                -0.330
REMARK  Name = 
REMARK  4 active torsions:
REMARK  status: ('A' for Active; 'I' for Inactive)
REMARK    1  A    between atoms: C_2  and  C_3
REMARK    2  A    between atoms: N_13  and  C_14
REMARK    3  A    between atoms: C_14  and  C_15
REMARK    4  A    between atoms: C_19  and  N_21
REMARK                            x       y       z     vdW  Elec       q    Type
REMARK                         _______ _______ _______ _____ _____    ______ ____
ROOT
ATOM      1  C   UNL     1     -33.890 -10.985  14.274  0.00  0.00    +0.052 A 
ATOM      2  C   UNL     1     -33.713  -9.712  14.832  0.00  0.00    +0.021 A 
ATOM      3  C   UNL     1     -33.104  -9.569  16.082  0.00  0.00    +0.029 A 
ATOM      4  C   UNL     1     -32.667 -10.698  16.782  0.00  0.00    +0.073 A 
ATOM      5  N   UNL     1     -32.077 -10.563  17.999  0.00  0.00    -0.232 NA
ATOM      6  C   UNL     1     -31.638 -11.632  18.719  0.00  0.00    +0.120 A 
ATOM      7  C   UNL     1     -31.790 -12.926  18.189  0.00  0.00    +0.044 A 
ATOM      8  C   UNL     1     -32.395 -13.098  16.943  0.00  0.00    +0.013 A 
ATOM      9  C   UNL     1     -32.842 -11.983  16.224  0.00  0.00    +0.002 A 
ATOM     10  C   UNL     1     -33.454 -12.121  14.969  0.00  0.00    +0.029 A 
ATOM     11  N   UNL     1     -31.026 -11.399  20.000  0.00  0.00    -0.325 N 
ATOM     12  H   UNL     1     -30.861 -10.409  20.289  0.00  0.00    +0.148 HD
ENDROOT
BRANCH   1  14
ATOM     13  N   UNL     1     -35.021 -11.239  11.951  0.00  0.00    -0.191 NA
ATOM     14  C   UNL     1     -34.517 -11.126  12.986  0.00  0.00    +0.099 C 
ENDBRANCH   1  14
BRANCH  11  15
ATOM     15  C   UNL     1     -30.670 -12.450  20.955  0.00  0.00    +0.138 C 
BRANCH  15  16
ATOM     16  C   UNL     1     -29.234 -12.868  20.775  0.00  0.00    -0.028 A 
ATOM     17  C   UNL     1     -28.735 -14.003  21.433  0.00  0.00    +0.005 A 
ATOM     18  C   UNL     1     -27.405 -14.389  21.259  0.00  0.00    +0.003 A 
ATOM     19  C   UNL     1     -26.564 -13.654  20.422  0.00  0.00    +0.033 A 
ATOM     20  C   UNL     1     -27.045 -12.522  19.743  0.00  0.00    +0.127 A 
ATOM     21  C   UNL     1     -28.388 -12.138  19.924  0.00  0.00    +0.038 A 
BRANCH  20  22
ATOM     22  N   UNL     1     -26.177 -11.768  18.877  0.00  0.00    +0.056 N 
ATOM     23  O   UNL     1     -26.698 -10.996  17.865  0.00  0.00    -0.126 OA
ATOM     24  O   UNL     1     -24.938 -11.804  19.028  0.00  0.00    -0.126 OA
ENDBRANCH  20  22
ENDBRANCH  15  16
ENDBRANCH  11  15
TORSDOF 4
ENDMDL
MODEL 7
REMARK VINA RESULT:    -3.522      4.145      5.345
REMARK INTER + INTRA:          -4.676
REMARK INTER:                  -4.928
REMARK INTRA:                   0.252
REMARK UNBOUND:                -0.330
REMARK  Name = 
REMARK  4 active torsions:
REMARK  status: ('A' for Active; 'I' for Inactive)
REMARK    1  A    between atoms: C_2  and  C_3
REMARK    2  A    between atoms: N_13  and  C_14
REMARK    3  A    between atoms: C_14  and  C_15
REMARK    4  A    between atoms: C_19  and  N_21
REMARK                            x       y       z     vdW  Elec       q    Type
REMARK                         _______ _______ _______ _____ _____    ______ ____
ROOT
ATOM      1  C   UNL     1     -32.371  -8.508  20.155  0.00  0.00    +0.052 A 
ATOM      2  C   UNL     1     -33.488  -9.330  20.359  0.00  0.00    +0.021 A 
ATOM      3  C   UNL     1     -33.929 -10.183  19.343  0.00  0.00    +0.029 A 
ATOM      4  C   UNL     1     -33.257 -10.220  18.118  0.00  0.00    +0.073 A 
ATOM      5  N   UNL     1     -33.686 -11.048  17.127  0.00  0.00    -0.232 NA
ATOM      6  C   UNL     1     -33.066 -11.116  15.917  0.00  0.00    +0.120 A 
ATOM      7  C   UNL     1     -31.937 -10.313  15.676  0.00  0.00    +0.044 A 
ATOM      8  C   UNL     1     -31.475  -9.451  16.672  0.00  0.00    +0.013 A 
ATOM      9  C   UNL     1     -32.132  -9.395  17.907  0.00  0.00    +0.002 A 
ATOM     10  C   UNL     1     -31.693  -8.540  18.929  0.00  0.00    +0.029 A 
ATOM     11  N   UNL     1     -33.587 -12.017  14.924  0.00  0.00    -0.325 N 
ATOM     12  H   UNL     1     -34.370 -12.651  15.202  0.00  0.00    +0.148 HD
ENDROOT
BRANCH   1  14
ATOM     13  N   UNL     1     -31.559  -6.928  22.048  0.00  0.00    -0.191 NA
ATOM     14  C   UNL     1     -31.921  -7.631  21.205  0.00  0.00    +0.099 C 
ENDBRANCH   1  14
BRANCH  11  15
ATOM     15  C   UNL     1     -33.138 -12.070  13.531  0.00  0.00    +0.138 C 
BRANCH  15  16
ATOM     16  C   UNL     1     -32.036 -13.084  13.365  0.00  0.00    -0.028 A 
ATOM     17  C   UNL     1     -31.820 -13.704  12.125  0.00  0.00    +0.005 A 
ATOM     18  C   UNL     1     -30.794 -14.639  11.976  0.00  0.00    +0.003 A 
ATOM     19  C   UNL     1     -29.970 -14.957  13.057  0.00  0.00    +0.033 A 
ATOM     20  C   UNL     1     -30.160 -14.339  14.304  0.00  0.00    +0.127 A 
ATOM     21  C   UNL     1     -31.197 -13.397  14.448  0.00  0.00    +0.038 A 
BRANCH  20  22
ATOM     22  N   UNL     1     -29.306 -14.665  15.416  0.00  0.00    +0.056 N 
ATOM     23  O   UNL     1     -27.939 -14.689  15.264  0.00  0.00    -0.126 OA
ATOM     24  O   UNL     1     -29.791 -14.934  16.535  0.00  0.00    -0.126 OA
ENDBRANCH  20  22
ENDBRANCH  15  16
ENDBRANCH  11  15
TORSDOF 4
ENDMDL
MODEL 8
REMARK VINA RESULT:    -3.468      4.815      6.594
REMARK INTER + INTRA:          -4.609
REMARK INTER:                  -4.125
REMARK INTRA:                  -0.484
REMARK UNBOUND:                -0.330
REMARK  Name = 
REMARK  4 active torsions:
REMARK  status: ('A' for Active; 'I' for Inactive)
REMARK    1  A    between atoms: C_2  and  C_3
REMARK    2  A    between atoms: N_13  and  C_14
REMARK    3  A    between atoms: C_14  and  C_15
REMARK    4  A    between atoms: C_19  and  N_21
REMARK                            x       y       z     vdW  Elec       q    Type
REMARK                         _______ _______ _______ _____ _____    ______ ____
ROOT
ATOM      1  C   UNL     1     -29.718 -14.216  14.308  0.00  0.00    +0.052 A 
ATOM      2  C   UNL     1     -28.804 -14.312  15.365  0.00  0.00    +0.021 A 
ATOM      3  C   UNL     1     -29.153 -13.858  16.641  0.00  0.00    +0.029 A 
ATOM      4  C   UNL     1     -30.417 -13.306  16.867  0.00  0.00    +0.073 A 
ATOM      5  N   UNL     1     -30.758 -12.862  18.106  0.00  0.00    -0.232 NA
ATOM      6  C   UNL     1     -31.976 -12.314  18.374  0.00  0.00    +0.120 A 
ATOM      7  C   UNL     1     -32.924 -12.208  17.340  0.00  0.00    +0.044 A 
ATOM      8  C   UNL     1     -32.603 -12.653  16.056  0.00  0.00    +0.013 A 
ATOM      9  C   UNL     1     -31.342 -13.208  15.805  0.00  0.00    +0.002 A 
ATOM     10  C   UNL     1     -30.988 -13.664  14.527  0.00  0.00    +0.029 A 
ATOM     11  N   UNL     1     -32.254 -11.867  19.713  0.00  0.00    -0.325 N 
ATOM     12  H   UNL     1     -31.540 -12.062  20.450  0.00  0.00    +0.148 HD
ENDROOT
BRANCH   1  14
ATOM     13  N   UNL     1     -29.060 -15.062  11.943  0.00  0.00    -0.191 NA
ATOM     14  C   UNL     1     -29.354 -14.685  12.996  0.00  0.00    +0.099 C 
ENDBRANCH   1  14
BRANCH  11  15
ATOM     15  C   UNL     1     -33.441 -11.106  20.106  0.00  0.00    +0.138 C 
BRANCH  15  16
ATOM     16  C   UNL     1     -33.201  -9.627  19.951  0.00  0.00    -0.028 A 
ATOM     17  C   UNL     1     -34.064  -8.843  19.171  0.00  0.00    +0.005 A 
ATOM     18  C   UNL     1     -33.839  -7.472  19.035  0.00  0.00    +0.003 A 
ATOM     19  C   UNL     1     -32.759  -6.869  19.682  0.00  0.00    +0.033 A 
ATOM     20  C   UNL     1     -31.889  -7.632  20.479  0.00  0.00    +0.127 A 
ATOM     21  C   UNL     1     -32.122  -9.015  20.611  0.00  0.00    +0.038 A 
BRANCH  20  22
ATOM     22  N   UNL     1     -30.779  -7.008  21.149  0.00  0.00    +0.056 N 
ATOM     23  O   UNL     1     -30.469  -5.689  20.907  0.00  0.00    -0.126 OA
ATOM     24  O   UNL     1     -30.078  -7.651  21.958  0.00  0.00    -0.126 OA
ENDBRANCH  20  22
ENDBRANCH  15  16
ENDBRANCH  11  15
TORSDOF 4
ENDMDL
