MODEL 1
REMARK VINA RESULT:    -3.778      0.000      0.000
REMARK INTER + INTRA:          -5.221
REMARK INTER:                  -4.661
REMARK INTRA:                  -0.560
REMARK UNBOUND:                -0.560
REMARK  Name = 
REMARK  6 active torsions:
REMARK  status: ('A' for Active; 'I' for Inactive)
REMARK    1  A    between atoms: C_1  and  C_2
REMARK    2  A    between atoms: C_2  and  C_3
REMARK    3  A    between atoms: C_3  and  C_4
REMARK    4  A    between atoms: C_3  and  N_6
REMARK    5  A    between atoms: C_4  and  C_5
REMARK    6  A    between atoms: C_10  and  N_14
REMARK                            x       y       z     vdW  Elec       q    Type
REMARK                         _______ _______ _______ _____ _____    ______ ____
ROOT
ATOM      1  N   UNL     1     -31.266 -13.081  19.957  0.00  0.00    -0.311 N 
ATOM      2  C   UNL     1     -29.838 -13.135  20.069  0.00  0.00    +0.217 A 
ATOM      3  N   UNL     1     -29.050 -12.381  19.259  0.00  0.00    -0.221 NA
ATOM      4  C   UNL     1     -27.698 -12.425  19.356  0.00  0.00    +0.150 A 
ATOM      5  C   UNL     1     -27.083 -13.246  20.311  0.00  0.00    +0.184 A 
ATOM      6  C   UNL     1     -27.917 -14.043  21.127  0.00  0.00    +0.152 A 
ATOM      7  N   UNL     1     -27.383 -14.986  22.061  0.00  0.00    -0.341 N 
ATOM      8  N   UNL     1     -29.267 -13.957  20.986  0.00  0.00    -0.198 NA
ATOM      9  H   UNL     1     -31.831 -13.663  20.616  0.00  0.00    +0.149 HD
ATOM     10  H   UNL     1     -28.027 -15.501  22.701  0.00  0.00    +0.144 HD
ATOM     11  H   UNL     1     -26.381 -15.273  22.050  0.00  0.00    +0.144 HD
ENDROOT
BRANCH   5  12
ATOM     12  N   UNL     1     -25.653 -13.232  20.449  0.00  0.00    +0.061 N 
ATOM     13  O   UNL     1     -25.053 -13.972  21.441  0.00  0.00    -0.126 OA
ATOM     14  O   UNL     1     -24.939 -12.733  19.555  0.00  0.00    -0.126 OA
ENDBRANCH   5  12
BRANCH   1  15
ATOM     15  C   UNL     1     -31.947 -12.217  18.983  0.00  0.00    +0.073 C 
BRANCH  15  17
ATOM     16  C   UNL     1     -32.070 -12.355  16.430  0.00  0.00    +0.006 C 
ATOM     17  C   UNL     1     -32.379 -13.059  17.751  0.00  0.00    +0.019 C 
ENDBRANCH  15  17
BRANCH  15  18
ATOM     18  C   UNL     1     -33.148 -11.522  19.667  0.00  0.00    +0.019 C 
ATOM     19  C   UNL     1     -32.833 -11.029  21.078  0.00  0.00    +0.006 C 
ENDBRANCH  15  18
ENDBRANCH   1  15
TORSDOF 4
ENDMDL
MODEL 2
REMARK VINA RESULT:    -3.689      1.995      2.256
REMARK INTER + INTRA:          -5.112
REMARK INTER:                  -4.499
REMARK INTRA:                  -0.613
REMARK UNBOUND:                -0.560
REMARK  Name = 
REMARK  6 active torsions:
REMARK  status: ('A' for Active; 'I' for Inactive)
REMARK    1  A    between atoms: C_1  and  C_2
REMARK    2  A    between atoms: C_2  and  C_3
REMARK    3  A    between atoms: C_3  and  C_4
REMARK    4  A    between atoms: C_3  and  N_6
REMARK    5  A    between atoms: C_4  and  C_5
REMARK    6  A    between atoms: C_10  and  N_14
REMARK                            x       y       z     vdW  Elec       q    Type
REMARK                         _______ _______ _______ _____ _____    ______ ____
ROOT
ATOM      1  N   UNL     1     -30.689 -11.797  17.817  0.00  0.00    -0.311 N 
ATOM      2  C   UNL     1     -29.494 -12.186  18.507  0.00  0.00    +0.217 A 
ATOM      3  N   UNL     1     -28.280 -11.726  18.107  0.00  0.00    -0.221 NA
ATOM      4  C   UNL     1     -27.144 -12.088  18.753  0.00  0.00    +0.150 A 
ATOM      5  C   UNL     1     -27.203 -12.940  19.864  0.00  0.00    +0.184 A 
ATOM      6  C   UNL     1     -28.470 -13.430  20.251  0.00  0.00    +0.152 A 
ATOM      7  N   UNL     1     -28.623 -14.381  21.308  0.00  0.00    -0.341 N 
ATOM      8  N   UNL     1     -29.576 -13.032  19.566  0.00  0.00    -0.198 NA
ATOM      9  H   UNL     1     -31.601 -12.160  18.175  0.00  0.00    +0.149 HD
ATOM     10  H   UNL     1     -29.580 -14.662  21.617  0.00  0.00    +0.144 HD
ATOM     11  H   UNL     1     -27.813 -14.903  21.708  0.00  0.00    +0.144 HD
ENDROOT
BRANCH   5  12
ATOM     12  N   UNL     1     -25.999 -13.260  20.580  0.00  0.00    +0.061 N 
ATOM     13  O   UNL     1     -26.058 -13.554  21.923  0.00  0.00    -0.126 OA
ATOM     14  O   UNL     1     -24.939 -13.486  19.961  0.00  0.00    -0.126 OA
ENDBRANCH   5  12
BRANCH   1  15
ATOM     15  C   UNL     1     -30.670 -10.890  16.662  0.00  0.00    +0.073 C 
BRANCH  15  17
ATOM     16  C   UNL     1     -30.805 -12.914  15.101  0.00  0.00    +0.006 C 
ATOM     17  C   UNL     1     -31.402 -11.555  15.464  0.00  0.00    +0.019 C 
ENDBRANCH  15  17
BRANCH  15  18
ATOM     18  C   UNL     1     -31.309  -9.539  17.061  0.00  0.00    +0.019 C 
ATOM     19  C   UNL     1     -32.717  -9.351  16.498  0.00  0.00    +0.006 C 
ENDBRANCH  15  18
ENDBRANCH   1  15
TORSDOF 4
ENDMDL
MODEL 3
REMARK VINA RESULT:    -3.634      3.732      5.291
REMARK INTER + INTRA:          -5.045
REMARK INTER:                  -4.590
REMARK INTRA:                  -0.454
REMARK UNBOUND:                -0.560
REMARK  Name = 
REMARK  6 active torsions:
REMARK  status: ('A' for Active; 'I' for Inactive)
REMARK    1  A    between atoms: C_1  and  C_2
REMARK    2  A    between atoms: C_2  and  C_3
REMARK    3  A    between atoms: C_3  and  C_4
REMARK    4  A    between atoms: C_3  and  N_6
REMARK    5  A    between atoms: C_4  and  C_5
REMARK    6  A    between atoms: C_10  and  N_14
REMARK                            x       y       z     vdW  Elec       q    Type
REMARK                         _______ _______ _______ _____ _____    ______ ____
ROOT
ATOM      1  N   UNL     1     -29.048 -14.088  14.952  0.00  0.00    -0.311 N 
ATOM      2  C   UNL     1     -29.326 -13.847  16.337  0.00  0.00    +0.217 A 
ATOM      3  N   UNL     1     -30.565 -14.074  16.846  0.00  0.00    -0.221 NA
ATOM      4  C   UNL     1     -30.839 -13.850  18.155  0.00  0.00    +0.150 A 
ATOM      5  C   UNL     1     -29.836 -13.388  19.019  0.00  0.00    +0.184 A 
ATOM      6  C   UNL     1     -28.561 -13.132  18.468  0.00  0.00    +0.152 A 
ATOM      7  N   UNL     1     -27.501 -12.566  19.245  0.00  0.00    -0.341 N 
ATOM      8  N   UNL     1     -28.343 -13.376  17.148  0.00  0.00    -0.198 NA
ATOM      9  H   UNL     1     -28.074 -13.919  14.612  0.00  0.00    +0.149 HD
ATOM     10  H   UNL     1     -26.551 -12.462  18.825  0.00  0.00    +0.144 HD
ATOM     11  H   UNL     1     -27.666 -12.137  20.181  0.00  0.00    +0.144 HD
ENDROOT
BRANCH   5  12
ATOM     12  N   UNL     1     -30.122 -13.219  20.416  0.00  0.00    +0.061 N 
ATOM     13  O   UNL     1     -29.156 -13.506  21.353  0.00  0.00    -0.126 OA
ATOM     14  O   UNL     1     -31.153 -12.616  20.781  0.00  0.00    -0.126 OA
ENDBRANCH   5  12
BRANCH   1  15
ATOM     15  C   UNL     1     -30.066 -14.591  14.021  0.00  0.00    +0.073 C 
BRANCH  15  17
ATOM     16  C   UNL     1     -31.723 -13.573  12.356  0.00  0.00    +0.006 C 
ATOM     17  C   UNL     1     -31.128 -13.487  13.761  0.00  0.00    +0.019 C 
ENDBRANCH  15  17
BRANCH  15  18
ATOM     18  C   UNL     1     -29.380 -15.061  12.717  0.00  0.00    +0.019 C 
ATOM     19  C   UNL     1     -27.899 -14.691  12.650  0.00  0.00    +0.006 C 
ENDBRANCH  15  18
ENDBRANCH   1  15
TORSDOF 4
ENDMDL
MODEL 4
REMARK VINA RESULT:    -3.623      3.267      4.597
REMARK INTER + INTRA:          -5.031
REMARK INTER:                  -4.395
REMARK INTRA:                  -0.636
REMARK UNBOUND:                -0.560
REMARK  Name = 
REMARK  6 active torsions:
REMARK  status: ('A' for Active; 'I' for Inactive)
REMARK    1  A    between atoms: C_1  and  C_2
REMARK    2  A    between atoms: C_2  and  C_3
REMARK    3  A    between atoms: C_3  and  C_4
REMARK    4  A    between atoms: C_3  and  N_6
REMARK    5  A    between atoms: C_4  and  C_5
REMARK    6  A    between atoms: C_10  and  N_14
REMARK                            x       y       z     vdW  Elec       q    Type
REMARK                         _______ _______ _______ _____ _____    ______ ____
ROOT
ATOM      1  N   UNL     1     -31.798 -12.922  14.887  0.00  0.00    -0.311 N 
ATOM      2  C   UNL     1     -31.002 -12.479  15.994  0.00  0.00    +0.217 A 
ATOM      3  N   UNL     1     -30.720 -11.161  16.162  0.00  0.00    -0.221 NA
ATOM      4  C   UNL     1     -29.968 -10.731  17.206  0.00  0.00    +0.150 A 
ATOM      5  C   UNL     1     -29.474 -11.646  18.145  0.00  0.00    +0.184 A 
ATOM      6  C   UNL     1     -29.753 -13.015  17.940  0.00  0.00    +0.152 A 
ATOM      7  N   UNL     1     -29.211 -14.033  18.787  0.00  0.00    -0.341 N 
ATOM      8  N   UNL     1     -30.514 -13.388  16.877  0.00  0.00    -0.198 NA
ATOM      9  H   UNL     1     -32.006 -13.944  14.811  0.00  0.00    +0.149 HD
ATOM     10  H   UNL     1     -29.501 -15.027  18.652  0.00  0.00    +0.144 HD
ATOM     11  H   UNL     1     -28.440 -13.842  19.462  0.00  0.00    +0.144 HD
ENDROOT
BRANCH   5  12
ATOM     12  N   UNL     1     -28.736 -11.170  19.282  0.00  0.00    +0.061 N 
ATOM     13  O   UNL     1     -29.359 -10.386  20.225  0.00  0.00    -0.126 OA
ATOM     14  O   UNL     1     -27.604 -11.631  19.537  0.00  0.00    -0.126 OA
ENDBRANCH   5  12
BRANCH   1  15
ATOM     15  C   UNL     1     -32.351 -11.993  13.893  0.00  0.00    +0.073 C 
BRANCH  15  17
ATOM     16  C   UNL     1     -33.565 -13.114  11.938  0.00  0.00    +0.006 C 
ATOM     17  C   UNL     1     -32.225 -12.610  12.473  0.00  0.00    +0.019 C 
ENDBRANCH  15  17
BRANCH  15  18
ATOM     18  C   UNL     1     -33.817 -11.664  14.260  0.00  0.00    +0.019 C 
ATOM     19  C   UNL     1     -34.014 -10.215  14.705  0.00  0.00    +0.006 C 
ENDBRANCH  15  18
ENDBRANCH   1  15
TORSDOF 4
ENDMDL
MODEL 5
REMARK VINA RESULT:    -3.570      3.438      4.955
REMARK INTER + INTRA:          -4.965
REMARK INTER:                  -4.334
REMARK INTRA:                  -0.630
REMARK UNBOUND:                -0.560
REMARK  Name = 
REMARK  6 active torsions:
REMARK  status: ('A' for Active; 'I' for Inactive)
REMARK    1  A    between atoms: C_1  and  C_2
REMARK    2  A    between atoms: C_2  and  C_3
REMARK    3  A    between atoms: C_3  and  C_4
REMARK    4  A    between atoms: C_3  and  N_6
REMARK    5  A    between atoms: C_4  and  C_5
REMARK    6  A    between atoms: C_10  and  N_14
REMARK                            x       y       z     vdW  Elec       q    Type
REMARK                         _______ _______ _______ _____ _____    ______ ____
ROOT
ATOM      1  N   UNL     1     -31.185 -13.962  15.284  0.00  0.00    -0.311 N 
ATOM      2  C   UNL     1     -30.773 -13.284  16.477  0.00  0.00    +0.217 A 
ATOM      3  N   UNL     1     -30.166 -12.071  16.411  0.00  0.00    -0.221 NA
ATOM      4  C   UNL     1     -29.773 -11.420  17.535  0.00  0.00    +0.150 A 
ATOM      5  C   UNL     1     -29.999 -11.987  18.796  0.00  0.00    +0.184 A 
ATOM      6  C   UNL     1     -30.606 -13.260  18.846  0.00  0.00    +0.152 A 
ATOM      7  N   UNL     1     -30.789 -13.965  20.077  0.00  0.00    -0.341 N 
ATOM      8  N   UNL     1     -30.981 -13.866  17.687  0.00  0.00    -0.198 NA
ATOM      9  H   UNL     1     -31.667 -14.884  15.387  0.00  0.00    +0.149 HD
ATOM     10  H   UNL     1     -31.311 -14.869  20.084  0.00  0.00    +0.144 HD
ATOM     11  H   UNL     1     -30.316 -13.673  20.960  0.00  0.00    +0.144 HD
ENDROOT
BRANCH   5  12
ATOM     12  N   UNL     1     -29.638 -11.257  19.980  0.00  0.00    +0.061 N 
ATOM     13  O   UNL     1     -29.075 -11.917  21.048  0.00  0.00    -0.126 OA
ATOM     14  O   UNL     1     -29.629 -10.008  19.972  0.00  0.00    -0.126 OA
ENDBRANCH   5  12
BRANCH   1  15
ATOM     15  C   UNL     1     -30.985 -13.392  13.945  0.00  0.00    +0.073 C 
BRANCH  15  17
ATOM     16  C   UNL     1     -28.857 -14.730  13.460  0.00  0.00    +0.006 C 
ATOM     17  C   UNL     1     -30.295 -14.440  13.029  0.00  0.00    +0.019 C 
ENDBRANCH  15  17
BRANCH  15  18
ATOM     18  C   UNL     1     -32.346 -12.925  13.378  0.00  0.00    +0.019 C 
ATOM     19  C   UNL     1     -32.583 -13.375  11.938  0.00  0.00    +0.006 C 
ENDBRANCH  15  18
ENDBRANCH   1  15
TORSDOF 4
ENDMDL
MODEL 6
REMARK VINA RESULT:    -3.545      4.924      6.684
REMARK INTER + INTRA:          -4.935
REMARK INTER:                  -4.610
REMARK INTRA:                  -0.325
REMARK UNBOUND:                -0.560
REMARK  Name = 
REMARK  6 active torsions:
REMARK  status: ('A' for Active; 'I' for Inactive)
REMARK    1  A    between atoms: C_1  and  C_2
REMARK    2  A    between atoms: C_2  and  C_3
REMARK    3  A    between atoms: C_3  and  C_4
REMARK    4  A    between atoms: C_3  and  N_6
REMARK    5  A    between atoms: C_4  and  C_5
REMARK    6  A    between atoms: C_10  and  N_14
REMARK                            x       y       z     vdW  Elec       q    Type
REMARK                         _______ _______ _______ _____ _____    ______ ____
ROOT
ATOM      1  N   UNL     1     -31.855 -12.037  14.141  0.00  0.00    -0.311 N 
ATOM      2  C   UNL     1     -31.590 -11.242  15.304  0.00  0.00    +0.217 A 
ATOM      3  N   UNL     1     -30.517 -11.507  16.095  0.00  0.00    -0.221 NA
ATOM      4  C   UNL     1     -30.257 -10.761  17.197  0.00  0.00    +0.150 A 
ATOM      5  C   UNL     1     -31.089  -9.686  17.537  0.00  0.00    +0.184 A 
ATOM      6  C   UNL     1     -32.214  -9.442  16.720  0.00  0.00    +0.152 A 
ATOM      7  N   UNL     1     -33.177  -8.433  17.039  0.00  0.00    -0.341 N 
ATOM      8  N   UNL     1     -32.425 -10.221  15.625  0.00  0.00    -0.198 NA
ATOM      9  H   UNL     1     -32.680 -11.781  13.551  0.00  0.00    +0.149 HD
ATOM     10  H   UNL     1     -33.953  -8.229  16.371  0.00  0.00    +0.144 HD
ATOM     11  H   UNL     1     -33.208  -7.970  17.973  0.00  0.00    +0.144 HD
ENDROOT
BRANCH   5  12
ATOM     12  N   UNL     1     -30.763  -8.864  18.669  0.00  0.00    +0.061 N 
ATOM     13  O   UNL     1     -31.697  -7.985  19.169  0.00  0.00    -0.126 OA
ATOM     14  O   UNL     1     -29.730  -9.087  19.335  0.00  0.00    -0.126 OA
ENDBRANCH   5  12
BRANCH   1  15
ATOM     15  C   UNL     1     -30.995 -13.158  13.740  0.00  0.00    +0.073 C 
BRANCH  15  17
ATOM     16  C   UNL     1     -29.661 -14.900  15.059  0.00  0.00    +0.006 C 
ATOM     17  C   UNL     1     -31.032 -14.261  14.833  0.00  0.00    +0.019 C 
ENDBRANCH  15  17
BRANCH  15  18
ATOM     18  C   UNL     1     -31.452 -13.686  12.360  0.00  0.00    +0.019 C 
ATOM     19  C   UNL     1     -32.884 -13.288  12.008  0.00  0.00    +0.006 C 
ENDBRANCH  15  18
ENDBRANCH   1  15
TORSDOF 4
ENDMDL
MODEL 7
REMARK VINA RESULT:    -3.351      5.418      7.022
REMARK INTER + INTRA:          -4.695
REMARK INTER:                  -4.049
REMARK INTRA:                  -0.646
REMARK UNBOUND:                -0.560
REMARK  Name = 
REMARK  6 active torsions:
REMARK  status: ('A' for Active; 'I' for Inactive)
REMARK    1  A    between atoms: C_1  and  C_2
REMARK    2  A    between atoms: C_2  and  C_3
REMARK    3  A    between atoms: C_3  and  C_4
REMARK    4  A    between atoms: C_3  and  N_6
REMARK    5  A    between atoms: C_4  and  C_5
REMARK    6  A    between atoms: C_10  and  N_14
REMARK                            x       y       z     vdW  Elec       q    Type
REMARK                         _______ _______ _______ _____ _____    ______ ____
ROOT
ATOM      1  N   UNL     1     -31.704 -11.924  13.920  0.00  0.00    -0.311 N 
ATOM      2  C   UNL     1     -32.087 -11.621  15.268  0.00  0.00    +0.217 A 
ATOM      3  N   UNL     1     -32.558 -12.595  16.090  0.00  0.00    -0.221 NA
ATOM      4  C   UNL     1     -32.922 -12.319  17.367  0.00  0.00    +0.150 A 
ATOM      5  C   UNL     1     -32.807 -11.016  17.871  0.00  0.00    +0.184 A 
ATOM      6  C   UNL     1     -32.341 -10.011  16.994  0.00  0.00    +0.152 A 
ATOM      7  N   UNL     1     -32.283  -8.636  17.382  0.00  0.00    -0.341 N 
ATOM      8  N   UNL     1     -31.989 -10.346  15.723  0.00  0.00    -0.198 NA
ATOM      9  H   UNL     1     -31.328 -11.146  13.331  0.00  0.00    +0.149 HD
ATOM     10  H   UNL     1     -31.861  -7.933  16.735  0.00  0.00    +0.144 HD
ATOM     11  H   UNL     1     -32.755  -8.280  18.240  0.00  0.00    +0.144 HD
ENDROOT
BRANCH   5  12
ATOM     12  N   UNL     1     -33.133 -10.751  19.245  0.00  0.00    +0.061 N 
ATOM     13  O   UNL     1     -33.813  -9.603  19.579  0.00  0.00    -0.126 OA
ATOM     14  O   UNL     1     -32.998 -11.644  20.107  0.00  0.00    -0.126 OA
ENDBRANCH   5  12
BRANCH   1  15
ATOM     15  C   UNL     1     -31.791 -13.281  13.363  0.00  0.00    +0.073 C 
BRANCH  15  17
ATOM     16  C   UNL     1     -33.808 -12.609  11.938  0.00  0.00    +0.006 C 
ATOM     17  C   UNL     1     -32.408 -13.222  11.939  0.00  0.00    +0.019 C 
ENDBRANCH  15  17
BRANCH  15  18
ATOM     18  C   UNL     1     -30.385 -13.926  13.365  0.00  0.00    +0.019 C 
ATOM     19  C   UNL     1     -30.132 -14.810  14.586  0.00  0.00    +0.006 C 
ENDBRANCH  15  18
ENDBRANCH   1  15
TORSDOF 4
ENDMDL
MODEL 8
REMARK VINA RESULT:    -3.302      2.221      3.584
REMARK INTER + INTRA:          -4.635
REMARK INTER:                  -3.979
REMARK INTRA:                  -0.655
REMARK UNBOUND:                -0.560
REMARK  Name = 
REMARK  6 active torsions:
REMARK  status: ('A' for Active; 'I' for Inactive)
REMARK    1  A    between atoms: C_1  and  C_2
REMARK    2  A    between atoms: C_2  and  C_3
REMARK    3  A    between atoms: C_3  and  C_4
REMARK    4  A    between atoms: C_3  and  N_6
REMARK    5  A    between atoms: C_4  and  C_5
REMARK    6  A    between atoms: C_10  and  N_14
REMARK                            x       y       z     vdW  Elec       q    Type
REMARK                         _______ _______ _______ _____ _____    ______ ____
ROOT
ATOM      1  N   UNL     1     -30.090  -9.939  17.265  0.00  0.00    -0.311 N 
ATOM      2  C   UNL     1     -29.301 -10.890  17.991  0.00  0.00    +0.217 A 
ATOM      3  N   UNL     1     -29.895 -11.868  18.725  0.00  0.00    -0.221 NA
ATOM      4  C   UNL     1     -29.158 -12.773  19.416  0.00  0.00    +0.150 A 
ATOM      5  C   UNL     1     -27.758 -12.724  19.376  0.00  0.00    +0.184 A 
ATOM      6  C   UNL     1     -27.158 -11.685  18.631  0.00  0.00    +0.152 A 
ATOM      7  N   UNL     1     -25.740 -11.490  18.610  0.00  0.00    -0.341 N 
ATOM      8  N   UNL     1     -27.946 -10.806  17.956  0.00  0.00    -0.198 NA
ATOM      9  H   UNL     1     -29.588  -9.218  16.698  0.00  0.00    +0.149 HD
ATOM     10  H   UNL     1     -25.328 -10.761  17.988  0.00  0.00    +0.144 HD
ATOM     11  H   UNL     1     -25.104 -11.967  19.284  0.00  0.00    +0.144 HD
ENDROOT
BRANCH   5  12
ATOM     12  N   UNL     1     -26.991 -13.728  20.058  0.00  0.00    +0.061 N 
ATOM     13  O   UNL     1     -27.622 -14.629  20.885  0.00  0.00    -0.126 OA
ATOM     14  O   UNL     1     -25.798 -13.930  19.747  0.00  0.00    -0.126 OA
ENDBRANCH   5  12
BRANCH   1  15
ATOM     15  C   UNL     1     -31.559  -9.971  17.264  0.00  0.00    +0.073 C 
BRANCH  15  17
ATOM     16  C   UNL     1     -33.479  -9.208  18.775  0.00  0.00    +0.006 C 
ATOM     17  C   UNL     1     -32.105  -8.860  18.203  0.00  0.00    +0.019 C 
ENDBRANCH  15  17
BRANCH  15  18
ATOM     18  C   UNL     1     -32.074  -9.817  15.814  0.00  0.00    +0.019 C 
ATOM     19  C   UNL     1     -31.892 -11.080  14.975  0.00  0.00    +0.006 C 
ENDBRANCH  15  18
ENDBRANCH   1  15
TORSDOF 4
ENDMDL
MODEL 9
REMARK VINA RESULT:    -3.144      2.548      3.332
REMARK INTER + INTRA:          -4.440
REMARK INTER:                  -4.069
REMARK INTRA:                  -0.371
REMARK UNBOUND:                -0.560
REMARK  Name = 
REMARK  6 active torsions:
REMARK  status: ('A' for Active; 'I' for Inactive)
REMARK    1  A    between atoms: C_1  and  C_2
REMARK    2  A    between atoms: C_2  and  C_3
REMARK    3  A    between atoms: C_3  and  C_4
REMARK    4  A    between atoms: C_3  and  N_6
REMARK    5  A    between atoms: C_4  and  C_5
REMARK    6  A    between atoms: C_10  and  N_14
REMARK                            x       y       z     vdW  Elec       q    Type
REMARK                         _______ _______ _______ _____ _____    ______ ____
ROOT
ATOM      1  N   UNL     1     -32.601 -10.759  17.445  0.00  0.00    -0.311 N 
ATOM      2  C   UNL     1     -31.243 -11.119  17.733  0.00  0.00    +0.217 A 
ATOM      3  N   UNL     1     -30.258 -10.183  17.710  0.00  0.00    -0.221 NA
ATOM      4  C   UNL     1     -28.971 -10.513  17.981  0.00  0.00    +0.150 A 
ATOM      5  C   UNL     1     -28.631 -11.834  18.304  0.00  0.00    +0.184 A 
ATOM      6  C   UNL     1     -29.663 -12.798  18.297  0.00  0.00    +0.152 A 
ATOM      7  N   UNL     1     -29.402 -14.188  18.516  0.00  0.00    -0.341 N 
ATOM      8  N   UNL     1     -30.937 -12.410  18.020  0.00  0.00    -0.198 NA
ATOM      9  H   UNL     1     -33.327 -11.509  17.496  0.00  0.00    +0.149 HD
ATOM     10  H   UNL     1     -30.198 -14.860  18.580  0.00  0.00    +0.144 HD
ATOM     11  H   UNL     1     -28.437 -14.582  18.495  0.00  0.00    +0.144 HD
ENDROOT
BRANCH   5  12
ATOM     12  N   UNL     1     -27.275 -12.156  18.654  0.00  0.00    +0.061 N 
ATOM     13  O   UNL     1     -26.285 -11.213  18.499  0.00  0.00    -0.126 OA
ATOM     14  O   UNL     1     -27.020 -13.197  19.294  0.00  0.00    -0.126 OA
ENDBRANCH   5  12
BRANCH   1  15
ATOM     15  C   UNL     1     -32.999  -9.382  17.123  0.00  0.00    +0.073 C 
BRANCH  15  17
ATOM     16  C   UNL     1     -33.132 -10.561  14.855  0.00  0.00    +0.006 C 
ATOM     17  C   UNL     1     -33.510  -9.316  15.657  0.00  0.00    +0.019 C 
ENDBRANCH  15  17
BRANCH  15  18
ATOM     18  C   UNL     1     -34.066  -8.907  18.137  0.00  0.00    +0.019 C 
ATOM     19  C   UNL     1     -33.786  -9.371  19.565  0.00  0.00    +0.006 C 
ENDBRANCH  15  18
ENDBRANCH   1  15
TORSDOF 4
ENDMDL
