MODEL 1
REMARK VINA RESULT:    -3.558      0.000      0.000
REMARK INTER + INTRA:          -5.061
REMARK INTER:                  -4.390
REMARK INTRA:                  -0.671
REMARK UNBOUND:                -0.671
REMARK  Name = 
REMARK  6 active torsions:
REMARK  status: ('A' for Active; 'I' for Inactive)
REMARK    1  A    between atoms: C_1  and  C_2
REMARK    2  A    between atoms: C_2  and  C_3
REMARK    3  A    between atoms: C_3  and  C_4
REMARK    4  A    between atoms: C_3  and  N_6
REMARK    5  A    between atoms: C_4  and  C_5
REMARK    6  A    between atoms: C_10  and  N_14
REMARK                            x       y       z     vdW  Elec       q    Type
REMARK                         _______ _______ _______ _____ _____    ______ ____
ROOT
ATOM      1  N   UNL     1     -30.646 -11.819  17.775  0.00  0.00    -0.311 N 
ATOM      2  C   UNL     1     -29.463 -12.216  18.481  0.00  0.00    +0.217 A 
ATOM      3  N   UNL     1     -28.239 -11.785  18.080  0.00  0.00    -0.221 NA
ATOM      4  C   UNL     1     -27.114 -12.155  18.741  0.00  0.00    +0.150 A 
ATOM      5  C   UNL     1     -27.195 -12.986  19.867  0.00  0.00    +0.184 A 
ATOM      6  C   UNL     1     -28.472 -13.447  20.253  0.00  0.00    +0.152 A 
ATOM      7  N   UNL     1     -28.650 -14.376  21.326  0.00  0.00    -0.341 N 
ATOM      8  N   UNL     1     -29.567 -13.042  19.554  0.00  0.00    -0.198 NA
ATOM      9  H   UNL     1     -31.567 -12.159  18.133  0.00  0.00    +0.149 HD
ATOM     10  H   UNL     1     -29.613 -14.634  21.633  0.00  0.00    +0.144 HD
ATOM     11  H   UNL     1     -27.852 -14.905  21.741  0.00  0.00    +0.144 HD
ENDROOT
BRANCH   5  12
ATOM     12  N   UNL     1     -26.002 -13.315  20.597  0.00  0.00    +0.061 N 
ATOM     13  O   UNL     1     -26.077 -13.598  21.941  0.00  0.00    -0.126 OA
ATOM     14  O   UNL     1     -24.938 -13.556  19.990  0.00  0.00    -0.126 OA
ENDBRANCH   5  12
BRANCH   1  15
ATOM     15  C   UNL     1     -30.604 -10.933  16.604  0.00  0.00    +0.073 C 
BRANCH  15  17
ATOM     16  C   UNL     1     -31.038 -12.815  14.924  0.00  0.00    +0.006 C 
ATOM     17  C   UNL     1     -31.539 -11.488  15.495  0.00  0.00    +0.019 C 
ENDBRANCH  15  17
BRANCH  15  18
ATOM     18  C   UNL     1     -30.991  -9.499  17.032  0.00  0.00    +0.019 C 
ATOM     19  C   UNL     1     -32.457  -9.371  17.446  0.00  0.00    +0.006 C 
ENDBRANCH  15  18
ENDBRANCH   1  15
TORSDOF 4
ENDMDL
MODEL 2
REMARK VINA RESULT:    -3.545      2.527      3.487
REMARK INTER + INTRA:          -5.045
REMARK INTER:                  -4.409
REMARK INTRA:                  -0.636
REMARK UNBOUND:                -0.671
REMARK  Name = 
REMARK  6 active torsions:
REMARK  status: ('A' for Active; 'I' for Inactive)
REMARK    1  A    between atoms: C_1  and  C_2
REMARK    2  A    between atoms: C_2  and  C_3
REMARK    3  A    between atoms: C_3  and  C_4
REMARK    4  A    between atoms: C_3  and  N_6
REMARK    5  A    between atoms: C_4  and  C_5
REMARK    6  A    between atoms: C_10  and  N_14
REMARK                            x       y       z     vdW  Elec       q    Type
REMARK                         _______ _______ _______ _____ _____    ______ ____
ROOT
ATOM      1  N   UNL     1     -31.706 -12.887  14.806  0.00  0.00    -0.311 N 
ATOM      2  C   UNL     1     -30.934 -12.444  15.931  0.00  0.00    +0.217 A 
ATOM      3  N   UNL     1     -30.720 -11.120  16.146  0.00  0.00    -0.221 NA
ATOM      4  C   UNL     1     -29.991 -10.691  17.207  0.00  0.00    +0.150 A 
ATOM      5  C   UNL     1     -29.453 -11.613  18.115  0.00  0.00    +0.184 A 
ATOM      6  C   UNL     1     -29.662 -12.986  17.861  0.00  0.00    +0.152 A 
ATOM      7  N   UNL     1     -29.071 -14.005  18.672  0.00  0.00    -0.341 N 
ATOM      8  N   UNL     1     -30.402 -13.359  16.782  0.00  0.00    -0.198 NA
ATOM      9  H   UNL     1     -31.862 -13.914  14.694  0.00  0.00    +0.149 HD
ATOM     10  H   UNL     1     -29.310 -15.006  18.501  0.00  0.00    +0.144 HD
ATOM     11  H   UNL     1     -28.311 -13.800  19.355  0.00  0.00    +0.144 HD
ENDROOT
BRANCH   5  12
ATOM     12  N   UNL     1     -28.741 -11.141  19.271  0.00  0.00    +0.061 N 
ATOM     13  O   UNL     1     -29.400 -10.409  20.231  0.00  0.00    -0.126 OA
ATOM     14  O   UNL     1     -27.593 -11.565  19.520  0.00  0.00    -0.126 OA
ENDBRANCH   5  12
BRANCH   1  15
ATOM     15  C   UNL     1     -32.304 -11.951  13.845  0.00  0.00    +0.073 C 
BRANCH  15  17
ATOM     16  C   UNL     1     -33.556 -13.112  11.938  0.00  0.00    +0.006 C 
ATOM     17  C   UNL     1     -32.218 -12.548  12.413  0.00  0.00    +0.019 C 
ENDBRANCH  15  17
BRANCH  15  18
ATOM     18  C   UNL     1     -33.761 -11.647  14.265  0.00  0.00    +0.019 C 
ATOM     19  C   UNL     1     -33.995 -10.174  14.598  0.00  0.00    +0.006 C 
ENDBRANCH  15  18
ENDBRANCH   1  15
TORSDOF 4
ENDMDL
MODEL 3
REMARK VINA RESULT:    -3.490      2.916      3.932
REMARK INTER + INTRA:          -4.977
REMARK INTER:                  -4.379
REMARK INTRA:                  -0.598
REMARK UNBOUND:                -0.671
REMARK  Name = 
REMARK  6 active torsions:
REMARK  status: ('A' for Active; 'I' for Inactive)
REMARK    1  A    between atoms: C_1  and  C_2
REMARK    2  A    between atoms: C_2  and  C_3
REMARK    3  A    between atoms: C_3  and  C_4
REMARK    4  A    between atoms: C_3  and  N_6
REMARK    5  A    between atoms: C_4  and  C_5
REMARK    6  A    between atoms: C_10  and  N_14
REMARK                            x       y       z     vdW  Elec       q    Type
REMARK                         _______ _______ _______ _____ _____    ______ ____
ROOT
ATOM      1  N   UNL     1     -29.041 -14.178  16.578  0.00  0.00    -0.311 N 
ATOM      2  C   UNL     1     -29.232 -13.090  17.491  0.00  0.00    +0.217 A 
ATOM      3  N   UNL     1     -29.721 -11.898  17.058  0.00  0.00    -0.221 NA
ATOM      4  C   UNL     1     -29.905 -10.862  17.913  0.00  0.00    +0.150 A 
ATOM      5  C   UNL     1     -29.604 -11.006  19.274  0.00  0.00    +0.184 A 
ATOM      6  C   UNL     1     -29.072 -12.241  19.703  0.00  0.00    +0.152 A 
ATOM      7  N   UNL     1     -28.641 -12.453  21.051  0.00  0.00    -0.341 N 
ATOM      8  N   UNL     1     -28.909 -13.247  18.801  0.00  0.00    -0.198 NA
ATOM      9  H   UNL     1     -28.683 -15.082  16.963  0.00  0.00    +0.149 HD
ATOM     10  H   UNL     1     -28.325 -13.402  21.350  0.00  0.00    +0.144 HD
ATOM     11  H   UNL     1     -28.513 -11.667  21.723  0.00  0.00    +0.144 HD
ENDROOT
BRANCH   5  12
ATOM     12  N   UNL     1     -29.868  -9.922  20.180  0.00  0.00    +0.061 N 
ATOM     13  O   UNL     1     -29.924 -10.159  21.534  0.00  0.00    -0.126 OA
ATOM     14  O   UNL     1     -29.833  -8.741  19.777  0.00  0.00    -0.126 OA
ENDBRANCH   5  12
BRANCH   1  15
ATOM     15  C   UNL     1     -29.364 -14.073  15.150  0.00  0.00    +0.073 C 
BRANCH  15  17
ATOM     16  C   UNL     1     -28.251 -14.593  12.904  0.00  0.00    +0.006 C 
ATOM     17  C   UNL     1     -28.481 -15.062  14.341  0.00  0.00    +0.019 C 
ENDBRANCH  15  17
BRANCH  15  18
ATOM     18  C   UNL     1     -30.875 -14.335  14.945  0.00  0.00    +0.019 C 
ATOM     19  C   UNL     1     -31.600 -13.173  14.269  0.00  0.00    +0.006 C 
ENDBRANCH  15  18
ENDBRANCH   1  15
TORSDOF 4
ENDMDL
MODEL 4
REMARK VINA RESULT:    -3.469      2.742      3.909
REMARK INTER + INTRA:          -4.952
REMARK INTER:                  -4.308
REMARK INTRA:                  -0.643
REMARK UNBOUND:                -0.671
REMARK  Name = 
REMARK  6 active torsions:
REMARK  status: ('A' for Active; 'I' for Inactive)
REMARK    1  A    between atoms: C_1  and  C_2
REMARK    2  A    between atoms: C_2  and  C_3
REMARK    3  A    between atoms: C_3  and  C_4
REMARK    4  A    between atoms: C_3  and  N_6
REMARK    5  A    between atoms: C_4  and  C_5
REMARK    6  A    between atoms: C_10  and  N_14
REMARK                            x       y       z     vdW  Elec       q    Type
REMARK                         _______ _______ _______ _____ _____    ______ ____
ROOT
ATOM      1  N   UNL     1     -31.259 -13.934  15.299  0.00  0.00    -0.311 N 
ATOM      2  C   UNL     1     -30.810 -13.275  16.490  0.00  0.00    +0.217 A 
ATOM      3  N   UNL     1     -30.162 -12.083  16.422  0.00  0.00    -0.221 NA
ATOM      4  C   UNL     1     -29.734 -11.451  17.543  0.00  0.00    +0.150 A 
ATOM      5  C   UNL     1     -29.964 -12.015  18.805  0.00  0.00    +0.184 A 
ATOM      6  C   UNL     1     -30.615 -13.268  18.856  0.00  0.00    +0.152 A 
ATOM      7  N   UNL     1     -30.807 -13.971  20.087  0.00  0.00    -0.341 N 
ATOM      8  N   UNL     1     -31.024 -13.855  17.700  0.00  0.00    -0.198 NA
ATOM      9  H   UNL     1     -31.772 -14.839  15.404  0.00  0.00    +0.149 HD
ATOM     10  H   UNL     1     -31.360 -14.856  20.096  0.00  0.00    +0.144 HD
ATOM     11  H   UNL     1     -30.314 -13.700  20.965  0.00  0.00    +0.144 HD
ENDROOT
BRANCH   5  12
ATOM     12  N   UNL     1     -29.564 -11.304  19.987  0.00  0.00    +0.061 N 
ATOM     13  O   UNL     1     -29.718  -9.938  20.050  0.00  0.00    -0.126 OA
ATOM     14  O   UNL     1     -29.282 -11.925  21.033  0.00  0.00    -0.126 OA
ENDBRANCH   5  12
BRANCH   1  15
ATOM     15  C   UNL     1     -31.055 -13.365  13.960  0.00  0.00    +0.073 C 
BRANCH  15  17
ATOM     16  C   UNL     1     -28.892 -14.636  13.455  0.00  0.00    +0.006 C 
ATOM     17  C   UNL     1     -30.348 -14.408  13.052  0.00  0.00    +0.019 C 
ENDBRANCH  15  17
BRANCH  15  18
ATOM     18  C   UNL     1     -32.416 -12.912  13.383  0.00  0.00    +0.019 C 
ATOM     19  C   UNL     1     -32.634 -13.358  11.938  0.00  0.00    +0.006 C 
ENDBRANCH  15  18
ENDBRANCH   1  15
TORSDOF 4
ENDMDL
MODEL 5
REMARK VINA RESULT:    -3.405      4.065      5.620
REMARK INTER + INTRA:          -4.872
REMARK INTER:                  -4.576
REMARK INTRA:                  -0.296
REMARK UNBOUND:                -0.671
REMARK  Name = 
REMARK  6 active torsions:
REMARK  status: ('A' for Active; 'I' for Inactive)
REMARK    1  A    between atoms: C_1  and  C_2
REMARK    2  A    between atoms: C_2  and  C_3
REMARK    3  A    between atoms: C_3  and  C_4
REMARK    4  A    between atoms: C_3  and  N_6
REMARK    5  A    between atoms: C_4  and  C_5
REMARK    6  A    between atoms: C_10  and  N_14
REMARK                            x       y       z     vdW  Elec       q    Type
REMARK                         _______ _______ _______ _____ _____    ______ ____
ROOT
ATOM      1  N   UNL     1     -32.112 -11.773  14.054  0.00  0.00    -0.311 N 
ATOM      2  C   UNL     1     -31.764 -11.056  15.245  0.00  0.00    +0.217 A 
ATOM      3  N   UNL     1     -30.647 -11.380  15.948  0.00  0.00    -0.221 NA
ATOM      4  C   UNL     1     -30.308 -10.707  17.076  0.00  0.00    +0.150 A 
ATOM      5  C   UNL     1     -31.103  -9.649  17.536  0.00  0.00    +0.184 A 
ATOM      6  C   UNL     1     -32.275  -9.344  16.809  0.00  0.00    +0.152 A 
ATOM      7  N   UNL     1     -33.202  -8.349  17.251  0.00  0.00    -0.341 N 
ATOM      8  N   UNL     1     -32.565 -10.050  15.683  0.00  0.00    -0.198 NA
ATOM      9  H   UNL     1     -32.970 -11.474  13.536  0.00  0.00    +0.149 HD
ATOM     10  H   UNL     1     -34.017  -8.096  16.649  0.00  0.00    +0.144 HD
ATOM     11  H   UNL     1     -33.168  -7.945  18.212  0.00  0.00    +0.144 HD
ENDROOT
BRANCH   5  12
ATOM     12  N   UNL     1     -30.696  -8.903  18.694  0.00  0.00    +0.061 N 
ATOM     13  O   UNL     1     -31.557  -7.990  19.258  0.00  0.00    -0.126 OA
ATOM     14  O   UNL     1     -29.664  -9.222  19.319  0.00  0.00    -0.126 OA
ENDBRANCH   5  12
BRANCH   1  15
ATOM     15  C   UNL     1     -31.293 -12.874  13.530  0.00  0.00    +0.073 C 
BRANCH  15  17
ATOM     16  C   UNL     1     -29.882 -14.706  14.628  0.00  0.00    +0.006 C 
ATOM     17  C   UNL     1     -31.253 -14.033  14.563  0.00  0.00    +0.019 C 
ENDBRANCH  15  17
BRANCH  15  18
ATOM     18  C   UNL     1     -31.858 -13.327  12.163  0.00  0.00    +0.019 C 
ATOM     19  C   UNL     1     -33.380 -13.218  12.076  0.00  0.00    +0.006 C 
ENDBRANCH  15  18
ENDBRANCH   1  15
TORSDOF 4
ENDMDL
MODEL 6
REMARK VINA RESULT:    -3.376      1.350      2.691
REMARK INTER + INTRA:          -4.836
REMARK INTER:                  -4.212
REMARK INTRA:                  -0.625
REMARK UNBOUND:                -0.671
REMARK  Name = 
REMARK  6 active torsions:
REMARK  status: ('A' for Active; 'I' for Inactive)
REMARK    1  A    between atoms: C_1  and  C_2
REMARK    2  A    between atoms: C_2  and  C_3
REMARK    3  A    between atoms: C_3  and  C_4
REMARK    4  A    between atoms: C_3  and  N_6
REMARK    5  A    between atoms: C_4  and  C_5
REMARK    6  A    between atoms: C_10  and  N_14
REMARK                            x       y       z     vdW  Elec       q    Type
REMARK                         _______ _______ _______ _____ _____    ______ ____
ROOT
ATOM      1  N   UNL     1     -29.116 -10.430  17.626  0.00  0.00    -0.311 N 
ATOM      2  C   UNL     1     -28.484 -11.358  18.516  0.00  0.00    +0.217 A 
ATOM      3  N   UNL     1     -29.226 -12.164  19.320  0.00  0.00    -0.221 NA
ATOM      4  C   UNL     1     -28.637 -13.046  20.165  0.00  0.00    +0.150 A 
ATOM      5  C   UNL     1     -27.240 -13.153  20.217  0.00  0.00    +0.184 A 
ATOM      6  C   UNL     1     -26.484 -12.289  19.394  0.00  0.00    +0.152 A 
ATOM      7  N   UNL     1     -25.055 -12.253  19.448  0.00  0.00    -0.341 N 
ATOM      8  N   UNL     1     -27.128 -11.425  18.564  0.00  0.00    -0.198 NA
ATOM      9  H   UNL     1     -28.504  -9.846  17.011  0.00  0.00    +0.149 HD
ATOM     10  H   UNL     1     -24.527 -11.658  18.771  0.00  0.00    +0.144 HD
ATOM     11  H   UNL     1     -24.516 -12.704  20.217  0.00  0.00    +0.144 HD
ENDROOT
BRANCH   5  12
ATOM     12  N   UNL     1     -26.633 -14.138  21.068  0.00  0.00    +0.061 N 
ATOM     13  O   UNL     1     -25.357 -13.940  21.544  0.00  0.00    -0.126 OA
ATOM     14  O   UNL     1     -27.318 -15.062  21.552  0.00  0.00    -0.126 OA
ENDBRANCH   5  12
BRANCH   1  15
ATOM     15  C   UNL     1     -30.576 -10.303  17.528  0.00  0.00    +0.073 C 
BRANCH  15  17
ATOM     16  C   UNL     1     -32.517  -9.687  19.079  0.00  0.00    +0.006 C 
ATOM     17  C   UNL     1     -31.093  -9.348  18.638  0.00  0.00    +0.019 C 
ENDBRANCH  15  17
BRANCH  15  18
ATOM     18  C   UNL     1     -30.954  -9.812  16.111  0.00  0.00    +0.019 C 
ATOM     19  C   UNL     1     -31.830 -10.802  15.345  0.00  0.00    +0.006 C 
ENDBRANCH  15  18
ENDBRANCH   1  15
TORSDOF 4
ENDMDL
MODEL 7
REMARK VINA RESULT:    -3.283      5.094      6.211
REMARK INTER + INTRA:          -4.722
REMARK INTER:                  -4.048
REMARK INTRA:                  -0.674
REMARK UNBOUND:                -0.671
REMARK  Name = 
REMARK  6 active torsions:
REMARK  status: ('A' for Active; 'I' for Inactive)
REMARK    1  A    between atoms: C_1  and  C_2
REMARK    2  A    between atoms: C_2  and  C_3
REMARK    3  A    between atoms: C_3  and  C_4
REMARK    4  A    between atoms: C_3  and  N_6
REMARK    5  A    between atoms: C_4  and  C_5
REMARK    6  A    between atoms: C_10  and  N_14
REMARK                            x       y       z     vdW  Elec       q    Type
REMARK                         _______ _______ _______ _____ _____    ______ ____
ROOT
ATOM      1  N   UNL     1     -31.621 -11.972  13.919  0.00  0.00    -0.311 N 
ATOM      2  C   UNL     1     -32.106 -11.640  15.227  0.00  0.00    +0.217 A 
ATOM      3  N   UNL     1     -32.686 -12.584  16.012  0.00  0.00    -0.221 NA
ATOM      4  C   UNL     1     -33.147 -12.280  17.251  0.00  0.00    +0.150 A 
ATOM      5  C   UNL     1     -33.023 -10.978  17.753  0.00  0.00    +0.184 A 
ATOM      6  C   UNL     1     -32.442 -10.002  16.913  0.00  0.00    +0.152 A 
ATOM      7  N   UNL     1     -32.361  -8.626  17.295  0.00  0.00    -0.341 N 
ATOM      8  N   UNL     1     -31.995 -10.364  15.680  0.00  0.00    -0.198 NA
ATOM      9  H   UNL     1     -31.163 -11.216  13.360  0.00  0.00    +0.149 HD
ATOM     10  H   UNL     1     -31.856  -7.948  16.682  0.00  0.00    +0.144 HD
ATOM     11  H   UNL     1     -32.891  -8.242  18.106  0.00  0.00    +0.144 HD
ENDROOT
BRANCH   5  12
ATOM     12  N   UNL     1     -33.455 -10.686  19.091  0.00  0.00    +0.061 N 
ATOM     13  O   UNL     1     -33.085 -11.512  20.127  0.00  0.00    -0.126 OA
ATOM     14  O   UNL     1     -33.978  -9.584  19.359  0.00  0.00    -0.126 OA
ENDBRANCH   5  12
BRANCH   1  15
ATOM     15  C   UNL     1     -31.715 -13.330  13.367  0.00  0.00    +0.073 C 
BRANCH  15  17
ATOM     16  C   UNL     1     -33.757 -12.747  11.938  0.00  0.00    +0.006 C 
ATOM     17  C   UNL     1     -32.322 -13.271  11.938  0.00  0.00    +0.019 C 
ENDBRANCH  15  17
BRANCH  15  18
ATOM     18  C   UNL     1     -30.315 -13.987  13.381  0.00  0.00    +0.019 C 
ATOM     19  C   UNL     1     -30.089 -14.893  14.590  0.00  0.00    +0.006 C 
ENDBRANCH  15  18
ENDBRANCH   1  15
TORSDOF 4
ENDMDL
MODEL 8
REMARK VINA RESULT:    -2.675      2.852      4.420
REMARK INTER + INTRA:          -3.971
REMARK INTER:                  -3.578
REMARK INTRA:                  -0.393
REMARK UNBOUND:                -0.671
REMARK  Name = 
REMARK  6 active torsions:
REMARK  status: ('A' for Active; 'I' for Inactive)
REMARK    1  A    between atoms: C_1  and  C_2
REMARK    2  A    between atoms: C_2  and  C_3
REMARK    3  A    between atoms: C_3  and  C_4
REMARK    4  A    between atoms: C_3  and  N_6
REMARK    5  A    between atoms: C_4  and  C_5
REMARK    6  A    between atoms: C_10  and  N_14
REMARK                            x       y       z     vdW  Elec       q    Type
REMARK                         _______ _______ _______ _____ _____    ______ ____
ROOT
ATOM      1  N   UNL     1     -29.056 -14.181  14.938  0.00  0.00    -0.311 N 
ATOM      2  C   UNL     1     -29.352 -13.910  16.314  0.00  0.00    +0.217 A 
ATOM      3  N   UNL     1     -30.609 -14.085  16.801  0.00  0.00    -0.221 NA
ATOM      4  C   UNL     1     -30.899 -13.831  18.101  0.00  0.00    +0.150 A 
ATOM      5  C   UNL     1     -29.898 -13.393  18.978  0.00  0.00    +0.184 A 
ATOM      6  C   UNL     1     -28.604 -13.191  18.450  0.00  0.00    +0.152 A 
ATOM      7  N   UNL     1     -27.540 -12.652  19.239  0.00  0.00    -0.341 N 
ATOM      8  N   UNL     1     -28.369 -13.463  17.138  0.00  0.00    -0.198 NA
ATOM      9  H   UNL     1     -28.070 -14.052  14.615  0.00  0.00    +0.149 HD
ATOM     10  H   UNL     1     -26.578 -12.589  18.837  0.00  0.00    +0.144 HD
ATOM     11  H   UNL     1     -27.707 -12.203  20.165  0.00  0.00    +0.144 HD
ENDROOT
BRANCH   5  12
ATOM     12  N   UNL     1     -30.205 -13.193  20.367  0.00  0.00    +0.061 N 
ATOM     13  O   UNL     1     -29.241 -13.421  21.322  0.00  0.00    -0.126 OA
ATOM     14  O   UNL     1     -31.259 -12.614  20.703  0.00  0.00    -0.126 OA
ENDBRANCH   5  12
BRANCH   1  15
ATOM     15  C   UNL     1     -30.073 -14.662  13.994  0.00  0.00    +0.073 C 
BRANCH  15  17
ATOM     16  C   UNL     1     -31.679 -13.526  12.355  0.00  0.00    +0.006 C 
ATOM     17  C   UNL     1     -31.156 -13.566  13.791  0.00  0.00    +0.019 C 
ENDBRANCH  15  17
BRANCH  15  18
ATOM     18  C   UNL     1     -29.391 -15.063  12.665  0.00  0.00    +0.019 C 
ATOM     19  C   UNL     1     -27.888 -14.786  12.655  0.00  0.00    +0.006 C 
ENDBRANCH  15  18
ENDBRANCH   1  15
TORSDOF 4
ENDMDL
