MODEL 1
REMARK VINA RESULT:    -4.943      0.000      0.000
REMARK INTER + INTRA:          -6.425
REMARK INTER:                  -6.099
REMARK INTRA:                  -0.326
REMARK UNBOUND:                -0.326
REMARK  Name = 
REMARK  4 active torsions:
REMARK  status: ('A' for Active; 'I' for Inactive)
REMARK    1  A    between atoms: C_2  and  C_3
REMARK    2  A    between atoms: N_13  and  C_14
REMARK    3  A    between atoms: C_14  and  C_15
REMARK    4  A    between atoms: C_19  and  N_21
REMARK                            x       y       z     vdW  Elec       q    Type
REMARK                         _______ _______ _______ _____ _____    ______ ____
ROOT
ATOM      1  C   UNL     1     -27.272 -13.118  20.146  0.00  0.00    +0.052 A 
ATOM      2  C   UNL     1     -28.431 -13.620  20.751  0.00  0.00    +0.021 A 
ATOM      3  C   UNL     1     -29.691 -13.184  20.329  0.00  0.00    +0.029 A 
ATOM      4  C   UNL     1     -29.799 -12.244  19.300  0.00  0.00    +0.073 A 
ATOM      5  N   UNL     1     -31.023 -11.816  18.889  0.00  0.00    -0.232 NA
ATOM      6  C   UNL     1     -31.178 -10.900  17.893  0.00  0.00    +0.120 A 
ATOM      7  C   UNL     1     -30.038 -10.379  17.256  0.00  0.00    +0.044 A 
ATOM      8  C   UNL     1     -28.767 -10.796  17.657  0.00  0.00    +0.013 A 
ATOM      9  C   UNL     1     -28.634 -11.735  18.686  0.00  0.00    +0.002 A 
ATOM     10  C   UNL     1     -27.372 -12.176  19.113  0.00  0.00    +0.029 A 
ATOM     11  N   UNL     1     -32.509 -10.501  17.523  0.00  0.00    -0.325 N 
ATOM     12  H   UNL     1     -33.311 -10.998  17.973  0.00  0.00    +0.148 HD
ENDROOT
BRANCH   1  14
ATOM     13  N   UNL     1     -24.938 -13.934  20.936  0.00  0.00    -0.191 NA
ATOM     14  C   UNL     1     -25.977 -13.571  20.584  0.00  0.00    +0.099 C 
ENDBRANCH   1  14
BRANCH  11  15
ATOM     15  C   UNL     1     -32.824  -9.408  16.602  0.00  0.00    +0.138 C 
BRANCH  15  16
ATOM     16  C   UNL     1     -33.467  -9.937  15.347  0.00  0.00    -0.028 A 
ATOM     17  C   UNL     1     -34.473  -9.204  14.698  0.00  0.00    +0.005 A 
ATOM     18  C   UNL     1     -35.062  -9.697  13.533  0.00  0.00    +0.003 A 
ATOM     19  C   UNL     1     -34.649 -10.919  12.999  0.00  0.00    +0.033 A 
ATOM     20  C   UNL     1     -33.635 -11.664  13.624  0.00  0.00    +0.127 A 
ATOM     21  C   UNL     1     -33.045 -11.160  14.800  0.00  0.00    +0.038 A 
BRANCH  20  22
ATOM     22  N   UNL     1     -33.207 -12.921  13.069  0.00  0.00    +0.056 N 
ATOM     23  O   UNL     1     -33.929 -13.523  12.064  0.00  0.00    -0.126 OA
ATOM     24  O   UNL     1     -32.177 -13.487  13.490  0.00  0.00    -0.126 OA
ENDBRANCH  20  22
ENDBRANCH  15  16
ENDBRANCH  11  15
TORSDOF 4
ENDMDL
MODEL 2
REMARK VINA RESULT:    -4.371      4.548      6.118
REMARK INTER + INTRA:          -5.720
REMARK INTER:                  -5.504
REMARK INTRA:                  -0.216
REMARK UNBOUND:                -0.326
REMARK  Name = 
REMARK  4 active torsions:
REMARK  status: ('A' for Active; 'I' for Inactive)
REMARK    1  A    between atoms: C_2  and  C_3
REMARK    2  A    between atoms: N_13  and  C_14
REMARK    3  A    between atoms: C_14  and  C_15
REMARK    4  A    between atoms: C_19  and  N_21
REMARK                            x       y       z     vdW  Elec       q    Type
REMARK                         _______ _______ _______ _____ _____    ______ ____
ROOT
ATOM      1  C   UNL     1     -29.799 -14.175  13.802  0.00  0.00    +0.052 A 
ATOM      2  C   UNL     1     -29.796 -14.777  15.067  0.00  0.00    +0.021 A 
ATOM      3  C   UNL     1     -30.642 -14.303  16.075  0.00  0.00    +0.029 A 
ATOM      4  C   UNL     1     -31.495 -13.225  15.824  0.00  0.00    +0.073 A 
ATOM      5  N   UNL     1     -32.317 -12.761  16.803  0.00  0.00    -0.232 NA
ATOM      6  C   UNL     1     -33.163 -11.712  16.606  0.00  0.00    +0.120 A 
ATOM      7  C   UNL     1     -33.201 -11.086  15.348  0.00  0.00    +0.044 A 
ATOM      8  C   UNL     1     -32.368 -11.538  14.323  0.00  0.00    +0.013 A 
ATOM      9  C   UNL     1     -31.503 -12.615  14.551  0.00  0.00    +0.002 A 
ATOM     10  C   UNL     1     -30.653 -13.094  13.543  0.00  0.00    +0.029 A 
ATOM     11  N   UNL     1     -33.997 -11.283  17.697  0.00  0.00    -0.325 N 
ATOM     12  H   UNL     1     -33.985 -11.852  18.574  0.00  0.00    +0.148 HD
ENDROOT
BRANCH   1  14
ATOM     13  N   UNL     1     -28.226 -15.062  11.938  0.00  0.00    -0.191 NA
ATOM     14  C   UNL     1     -28.927 -14.667  12.768  0.00  0.00    +0.099 C 
ENDBRANCH   1  14
BRANCH  11  15
ATOM     15  C   UNL     1     -34.819 -10.072  17.690  0.00  0.00    +0.138 C 
BRANCH  15  16
ATOM     16  C   UNL     1     -34.065  -8.912  18.285  0.00  0.00    -0.028 A 
ATOM     17  C   UNL     1     -34.680  -7.658  18.427  0.00  0.00    +0.005 A 
ATOM     18  C   UNL     1     -33.978  -6.589  18.984  0.00  0.00    +0.003 A 
ATOM     19  C   UNL     1     -32.660  -6.760  19.412  0.00  0.00    +0.033 A 
ATOM     20  C   UNL     1     -32.028  -8.009  19.292  0.00  0.00    +0.127 A 
ATOM     21  C   UNL     1     -32.743  -9.084  18.729  0.00  0.00    +0.038 A 
BRANCH  20  22
ATOM     22  N   UNL     1     -30.671  -8.184  19.739  0.00  0.00    +0.056 N 
ATOM     23  O   UNL     1     -29.900  -9.212  19.246  0.00  0.00    -0.126 OA
ATOM     24  O   UNL     1     -30.171  -7.410  20.582  0.00  0.00    -0.126 OA
ENDBRANCH  20  22
ENDBRANCH  15  16
ENDBRANCH  11  15
TORSDOF 4
ENDMDL
MODEL 3
REMARK VINA RESULT:    -4.248      3.121      3.740
REMARK INTER + INTRA:          -5.567
REMARK INTER:                  -5.176
REMARK INTRA:                  -0.391
REMARK UNBOUND:                -0.326
REMARK  Name = 
REMARK  4 active torsions:
REMARK  status: ('A' for Active; 'I' for Inactive)
REMARK    1  A    between atoms: C_2  and  C_3
REMARK    2  A    between atoms: N_13  and  C_14
REMARK    3  A    between atoms: C_14  and  C_15
REMARK    4  A    between atoms: C_19  and  N_21
REMARK                            x       y       z     vdW  Elec       q    Type
REMARK                         _______ _______ _______ _____ _____    ______ ____
ROOT
ATOM      1  C   UNL     1     -27.419 -13.372  20.251  0.00  0.00    +0.052 A 
ATOM      2  C   UNL     1     -28.423 -13.375  21.228  0.00  0.00    +0.021 A 
ATOM      3  C   UNL     1     -29.761 -13.197  20.863  0.00  0.00    +0.029 A 
ATOM      4  C   UNL     1     -30.103 -13.016  19.519  0.00  0.00    +0.073 A 
ATOM      5  N   UNL     1     -31.403 -12.841  19.161  0.00  0.00    -0.232 NA
ATOM      6  C   UNL     1     -31.784 -12.658  17.867  0.00  0.00    +0.120 A 
ATOM      7  C   UNL     1     -30.806 -12.656  16.856  0.00  0.00    +0.044 A 
ATOM      8  C   UNL     1     -29.462 -12.831  17.192  0.00  0.00    +0.013 A 
ATOM      9  C   UNL     1     -29.095 -13.013  18.531  0.00  0.00    +0.002 A 
ATOM     10  C   UNL     1     -27.754 -13.191  18.902  0.00  0.00    +0.029 A 
ATOM     11  N   UNL     1     -33.181 -12.477  17.576  0.00  0.00    -0.325 N 
ATOM     12  H   UNL     1     -33.860 -12.582  18.363  0.00  0.00    +0.148 HD
ENDROOT
BRANCH   1  14
ATOM     13  N   UNL     1     -24.938 -13.703  20.940  0.00  0.00    -0.191 NA
ATOM     14  C   UNL     1     -26.043 -13.556  20.632  0.00  0.00    +0.099 C 
ENDBRANCH   1  14
BRANCH  11  15
ATOM     15  C   UNL     1     -33.716 -12.098  16.268  0.00  0.00    +0.138 C 
BRANCH  15  16
ATOM     16  C   UNL     1     -34.085 -10.637  16.246  0.00  0.00    -0.028 A 
ATOM     17  C   UNL     1     -34.336  -9.984  15.029  0.00  0.00    +0.005 A 
ATOM     18  C   UNL     1     -34.681  -8.632  15.016  0.00  0.00    +0.003 A 
ATOM     19  C   UNL     1     -34.790  -7.921  16.213  0.00  0.00    +0.033 A 
ATOM     20  C   UNL     1     -34.557  -8.558  17.443  0.00  0.00    +0.127 A 
ATOM     21  C   UNL     1     -34.208  -9.923  17.449  0.00  0.00    +0.038 A 
BRANCH  20  22
ATOM     22  N   UNL     1     -34.674  -7.825  18.676  0.00  0.00    +0.056 N 
ATOM     23  O   UNL     1     -34.363  -8.422  19.877  0.00  0.00    -0.126 OA
ATOM     24  O   UNL     1     -35.061  -6.638  18.679  0.00  0.00    -0.126 OA
ENDBRANCH  20  22
ENDBRANCH  15  16
ENDBRANCH  11  15
TORSDOF 4
ENDMDL
MODEL 4
REMARK VINA RESULT:    -4.034      4.688      6.750
REMARK INTER + INTRA:          -5.303
REMARK INTER:                  -4.919
REMARK INTRA:                  -0.384
REMARK UNBOUND:                -0.326
REMARK  Name = 
REMARK  4 active torsions:
REMARK  status: ('A' for Active; 'I' for Inactive)
REMARK    1  A    between atoms: C_2  and  C_3
REMARK    2  A    between atoms: N_13  and  C_14
REMARK    3  A    between atoms: C_14  and  C_15
REMARK    4  A    between atoms: C_19  and  N_21
REMARK                            x       y       z     vdW  Elec       q    Type
REMARK                         _______ _______ _______ _____ _____    ______ ____
ROOT
ATOM      1  C   UNL     1     -29.324 -14.235  13.719  0.00  0.00    +0.052 A 
ATOM      2  C   UNL     1     -30.653 -13.979  13.355  0.00  0.00    +0.021 A 
ATOM      3  C   UNL     1     -31.572 -13.535  14.310  0.00  0.00    +0.029 A 
ATOM      4  C   UNL     1     -31.169 -13.345  15.636  0.00  0.00    +0.073 A 
ATOM      5  N   UNL     1     -32.061 -12.915  16.567  0.00  0.00    -0.232 NA
ATOM      6  C   UNL     1     -31.716 -12.718  17.870  0.00  0.00    +0.120 A 
ATOM      7  C   UNL     1     -30.390 -12.957  18.273  0.00  0.00    +0.044 A 
ATOM      8  C   UNL     1     -29.451 -13.401  17.340  0.00  0.00    +0.013 A 
ATOM      9  C   UNL     1     -29.831 -13.600  16.008  0.00  0.00    +0.002 A 
ATOM     10  C   UNL     1     -28.913 -14.045  15.046  0.00  0.00    +0.029 A 
ATOM     11  N   UNL     1     -32.724 -12.265  18.791  0.00  0.00    -0.325 N 
ATOM     12  H   UNL     1     -33.663 -12.019  18.404  0.00  0.00    +0.148 HD
ENDROOT
BRANCH   1  14
ATOM     13  N   UNL     1     -27.624 -15.058  11.938  0.00  0.00    -0.191 NA
ATOM     14  C   UNL     1     -28.382 -14.691  12.731  0.00  0.00    +0.099 C 
ENDBRANCH   1  14
BRANCH  11  15
ATOM     15  C   UNL     1     -32.547 -12.179  20.241  0.00  0.00    +0.138 C 
BRANCH  15  16
ATOM     16  C   UNL     1     -32.862 -10.791  20.734  0.00  0.00    -0.028 A 
ATOM     17  C   UNL     1     -33.941 -10.571  21.605  0.00  0.00    +0.005 A 
ATOM     18  C   UNL     1     -34.224  -9.284  22.062  0.00  0.00    +0.003 A 
ATOM     19  C   UNL     1     -33.431  -8.205  21.665  0.00  0.00    +0.033 A 
ATOM     20  C   UNL     1     -32.338  -8.403  20.805  0.00  0.00    +0.127 A 
ATOM     21  C   UNL     1     -32.058  -9.706  20.347  0.00  0.00    +0.038 A 
BRANCH  20  22
ATOM     22  N   UNL     1     -31.519  -7.291  20.401  0.00  0.00    +0.056 N 
ATOM     23  O   UNL     1     -30.159  -7.441  20.253  0.00  0.00    -0.126 OA
ATOM     24  O   UNL     1     -32.026  -6.172  20.180  0.00  0.00    -0.126 OA
ENDBRANCH  20  22
ENDBRANCH  15  16
ENDBRANCH  11  15
TORSDOF 4
ENDMDL
MODEL 5
REMARK VINA RESULT:    -3.841      3.449      5.321
REMARK INTER + INTRA:          -5.066
REMARK INTER:                  -4.683
REMARK INTRA:                  -0.383
REMARK UNBOUND:                -0.326
REMARK  Name = 
REMARK  4 active torsions:
REMARK  status: ('A' for Active; 'I' for Inactive)
REMARK    1  A    between atoms: C_2  and  C_3
REMARK    2  A    between atoms: N_13  and  C_14
REMARK    3  A    between atoms: C_14  and  C_15
REMARK    4  A    between atoms: C_19  and  N_21
REMARK                            x       y       z     vdW  Elec       q    Type
REMARK                         _______ _______ _______ _____ _____    ______ ____
ROOT
ATOM      1  C   UNL     1     -31.683  -7.597  20.185  0.00  0.00    +0.052 A 
ATOM      2  C   UNL     1     -32.917  -7.910  19.598  0.00  0.00    +0.021 A 
ATOM      3  C   UNL     1     -33.087  -9.121  18.919  0.00  0.00    +0.029 A 
ATOM      4  C   UNL     1     -32.025 -10.026  18.824  0.00  0.00    +0.073 A 
ATOM      5  N   UNL     1     -32.187 -11.203  18.163  0.00  0.00    -0.232 NA
ATOM      6  C   UNL     1     -31.182 -12.114  18.041  0.00  0.00    +0.120 A 
ATOM      7  C   UNL     1     -29.932 -11.840  18.623  0.00  0.00    +0.044 A 
ATOM      8  C   UNL     1     -29.734 -10.638  19.307  0.00  0.00    +0.013 A 
ATOM      9  C   UNL     1     -30.781  -9.716  19.414  0.00  0.00    +0.002 A 
ATOM     10  C   UNL     1     -30.615  -8.500  20.094  0.00  0.00    +0.029 A 
ATOM     11  N   UNL     1     -31.438 -13.333  17.322  0.00  0.00    -0.325 N 
ATOM     12  H   UNL     1     -32.415 -13.512  16.997  0.00  0.00    +0.148 HD
ENDROOT
BRANCH   1  14
ATOM     13  N   UNL     1     -31.378  -5.347  21.443  0.00  0.00    -0.191 NA
ATOM     14  C   UNL     1     -31.514  -6.349  20.883  0.00  0.00    +0.099 C 
ENDBRANCH   1  14
BRANCH  11  15
ATOM     15  C   UNL     1     -30.416 -14.317  16.962  0.00  0.00    +0.138 C 
BRANCH  15  16
ATOM     16  C   UNL     1     -30.219 -14.358  15.469  0.00  0.00    -0.028 A 
ATOM     17  C   UNL     1     -29.094 -14.990  14.916  0.00  0.00    +0.005 A 
ATOM     18  C   UNL     1     -28.920 -15.030  13.532  0.00  0.00    +0.003 A 
ATOM     19  C   UNL     1     -29.867 -14.449  12.687  0.00  0.00    +0.033 A 
ATOM     20  C   UNL     1     -31.007 -13.822  13.218  0.00  0.00    +0.127 A 
ATOM     21  C   UNL     1     -31.176 -13.786  14.616  0.00  0.00    +0.038 A 
BRANCH  20  22
ATOM     22  N   UNL     1     -31.984 -13.227  12.345  0.00  0.00    +0.056 N 
ATOM     23  O   UNL     1     -33.087 -13.943  11.940  0.00  0.00    -0.126 OA
ATOM     24  O   UNL     1     -31.847 -12.055  11.938  0.00  0.00    -0.126 OA
ENDBRANCH  20  22
ENDBRANCH  15  16
ENDBRANCH  11  15
TORSDOF 4
ENDMDL
MODEL 6
REMARK VINA RESULT:    -3.808      2.909      8.158
REMARK INTER + INTRA:          -5.024
REMARK INTER:                  -4.768
REMARK INTRA:                  -0.256
REMARK UNBOUND:                -0.326
REMARK  Name = 
REMARK  4 active torsions:
REMARK  status: ('A' for Active; 'I' for Inactive)
REMARK    1  A    between atoms: C_2  and  C_3
REMARK    2  A    between atoms: N_13  and  C_14
REMARK    3  A    between atoms: C_14  and  C_15
REMARK    4  A    between atoms: C_19  and  N_21
REMARK                            x       y       z     vdW  Elec       q    Type
REMARK                         _______ _______ _______ _____ _____    ______ ____
ROOT
ATOM      1  C   UNL     1     -33.908 -10.780  14.318  0.00  0.00    +0.052 A 
ATOM      2  C   UNL     1     -33.710  -9.535  14.928  0.00  0.00    +0.021 A 
ATOM      3  C   UNL     1     -33.092  -9.454  16.179  0.00  0.00    +0.029 A 
ATOM      4  C   UNL     1     -32.669 -10.618  16.829  0.00  0.00    +0.073 A 
ATOM      5  N   UNL     1     -32.070 -10.543  18.047  0.00  0.00    -0.232 NA
ATOM      6  C   UNL     1     -31.644 -11.648  18.719  0.00  0.00    +0.120 A 
ATOM      7  C   UNL     1     -31.819 -12.916  18.135  0.00  0.00    +0.044 A 
ATOM      8  C   UNL     1     -32.433 -13.026  16.886  0.00  0.00    +0.013 A 
ATOM      9  C   UNL     1     -32.866 -11.875  16.218  0.00  0.00    +0.002 A 
ATOM     10  C   UNL     1     -33.487 -11.951  14.962  0.00  0.00    +0.029 A 
ATOM     11  N   UNL     1     -31.023 -11.479  20.004  0.00  0.00    -0.325 N 
ATOM     12  H   UNL     1     -30.841 -10.504  20.334  0.00  0.00    +0.148 HD
ENDROOT
BRANCH   1  14
ATOM     13  N   UNL     1     -35.056 -10.918  11.993  0.00  0.00    -0.191 NA
ATOM     14  C   UNL     1     -34.545 -10.857  13.028  0.00  0.00    +0.099 C 
ENDBRANCH   1  14
BRANCH  11  15
ATOM     15  C   UNL     1     -30.678 -12.574  20.913  0.00  0.00    +0.138 C 
BRANCH  15  16
ATOM     16  C   UNL     1     -29.224 -12.943  20.774  0.00  0.00    -0.028 A 
ATOM     17  C   UNL     1     -28.693 -14.029  21.486  0.00  0.00    +0.005 A 
ATOM     18  C   UNL     1     -27.346 -14.369  21.350  0.00  0.00    +0.003 A 
ATOM     19  C   UNL     1     -26.519 -13.637  20.496  0.00  0.00    +0.033 A 
ATOM     20  C   UNL     1     -27.032 -12.554  19.763  0.00  0.00    +0.127 A 
ATOM     21  C   UNL     1     -28.392 -12.216  19.906  0.00  0.00    +0.038 A 
BRANCH  20  22
ATOM     22  N   UNL     1     -26.178 -11.803  18.880  0.00  0.00    +0.056 N 
ATOM     23  O   UNL     1     -26.714 -11.056  17.857  0.00  0.00    -0.126 OA
ATOM     24  O   UNL     1     -24.938 -11.819  19.026  0.00  0.00    -0.126 OA
ENDBRANCH  20  22
ENDBRANCH  15  16
ENDBRANCH  11  15
TORSDOF 4
ENDMDL
MODEL 7
REMARK VINA RESULT:    -3.695      4.927      7.057
REMARK INTER + INTRA:          -4.885
REMARK INTER:                  -4.446
REMARK INTRA:                  -0.439
REMARK UNBOUND:                -0.326
REMARK  Name = 
REMARK  4 active torsions:
REMARK  status: ('A' for Active; 'I' for Inactive)
REMARK    1  A    between atoms: C_2  and  C_3
REMARK    2  A    between atoms: N_13  and  C_14
REMARK    3  A    between atoms: C_14  and  C_15
REMARK    4  A    between atoms: C_19  and  N_21
REMARK                            x       y       z     vdW  Elec       q    Type
REMARK                         _______ _______ _______ _____ _____    ______ ____
ROOT
ATOM      1  C   UNL     1     -30.936 -13.552  13.326  0.00  0.00    +0.052 A 
ATOM      2  C   UNL     1     -32.129 -13.084  12.759  0.00  0.00    +0.021 A 
ATOM      3  C   UNL     1     -32.990 -12.270  13.502  0.00  0.00    +0.029 A 
ATOM      4  C   UNL     1     -32.663 -11.918  14.815  0.00  0.00    +0.073 A 
ATOM      5  N   UNL     1     -33.499 -11.128  15.540  0.00  0.00    -0.232 NA
ATOM      6  C   UNL     1     -33.225 -10.762  16.823  0.00  0.00    +0.120 A 
ATOM      7  C   UNL     1     -32.033 -11.205  17.424  0.00  0.00    +0.044 A 
ATOM      8  C   UNL     1     -31.155 -12.019  16.706  0.00  0.00    +0.013 A 
ATOM      9  C   UNL     1     -31.462 -12.386  15.390  0.00  0.00    +0.002 A 
ATOM     10  C   UNL     1     -30.602 -13.203  14.641  0.00  0.00    +0.029 A 
ATOM     11  N   UNL     1     -34.165  -9.926  17.519  0.00  0.00    -0.325 N 
ATOM     12  H   UNL     1     -34.982  -9.558  16.981  0.00  0.00    +0.148 HD
ENDROOT
BRANCH   1  14
ATOM     13  N   UNL     1     -29.345 -15.062  11.938  0.00  0.00    -0.191 NA
ATOM     14  C   UNL     1     -30.054 -14.389  12.556  0.00  0.00    +0.099 C 
ENDBRANCH   1  14
BRANCH  11  15
ATOM     15  C   UNL     1     -34.093  -9.599  18.944  0.00  0.00    +0.138 C 
BRANCH  15  16
ATOM     16  C   UNL     1     -33.750  -8.146  19.141  0.00  0.00    -0.028 A 
ATOM     17  C   UNL     1     -34.629  -7.141  18.708  0.00  0.00    +0.005 A 
ATOM     18  C   UNL     1     -34.309  -5.796  18.898  0.00  0.00    +0.003 A 
ATOM     19  C   UNL     1     -33.114  -5.440  19.527  0.00  0.00    +0.033 A 
ATOM     20  C   UNL     1     -32.225  -6.429  19.980  0.00  0.00    +0.127 A 
ATOM     21  C   UNL     1     -32.555  -7.784  19.785  0.00  0.00    +0.038 A 
BRANCH  20  22
ATOM     22  N   UNL     1     -30.996  -6.059  20.632  0.00  0.00    +0.056 N 
ATOM     23  O   UNL     1     -29.938  -6.938  20.680  0.00  0.00    -0.126 OA
ATOM     24  O   UNL     1     -30.870  -4.938  21.167  0.00  0.00    -0.126 OA
ENDBRANCH  20  22
ENDBRANCH  15  16
ENDBRANCH  11  15
TORSDOF 4
ENDMDL
MODEL 8
REMARK VINA RESULT:    -3.649      1.470      1.707
REMARK INTER + INTRA:          -4.829
REMARK INTER:                  -4.748
REMARK INTRA:                  -0.080
REMARK UNBOUND:                -0.326
REMARK  Name = 
REMARK  4 active torsions:
REMARK  status: ('A' for Active; 'I' for Inactive)
REMARK    1  A    between atoms: C_2  and  C_3
REMARK    2  A    between atoms: N_13  and  C_14
REMARK    3  A    between atoms: C_14  and  C_15
REMARK    4  A    between atoms: C_19  and  N_21
REMARK                            x       y       z     vdW  Elec       q    Type
REMARK                         _______ _______ _______ _____ _____    ______ ____
ROOT
ATOM      1  C   UNL     1     -28.066 -12.551  19.746  0.00  0.00    +0.052 A 
ATOM      2  C   UNL     1     -29.095 -13.257  20.383  0.00  0.00    +0.021 A 
ATOM      3  C   UNL     1     -30.422 -12.834  20.258  0.00  0.00    +0.029 A 
ATOM      4  C   UNL     1     -30.728 -11.702  19.495  0.00  0.00    +0.073 A 
ATOM      5  N   UNL     1     -32.017 -11.287  19.374  0.00  0.00    -0.232 NA
ATOM      6  C   UNL     1     -32.363 -10.190  18.645  0.00  0.00    +0.120 A 
ATOM      7  C   UNL     1     -31.359  -9.460  17.984  0.00  0.00    +0.044 A 
ATOM      8  C   UNL     1     -30.026  -9.859  18.092  0.00  0.00    +0.013 A 
ATOM      9  C   UNL     1     -29.695 -10.988  18.851  0.00  0.00    +0.002 A 
ATOM     10  C   UNL     1     -28.365 -11.416  18.980  0.00  0.00    +0.029 A 
ATOM     11  N   UNL     1     -33.751  -9.819  18.571  0.00  0.00    -0.325 N 
ATOM     12  H   UNL     1     -34.451 -10.460  19.008  0.00  0.00    +0.148 HD
ENDROOT
BRANCH   1  14
ATOM     13  N   UNL     1     -25.606 -13.345  19.984  0.00  0.00    -0.191 NA
ATOM     14  C   UNL     1     -26.702 -12.991  19.878  0.00  0.00    +0.099 C 
ENDBRANCH   1  14
BRANCH  11  15
ATOM     15  C   UNL     1     -34.250  -8.578  17.977  0.00  0.00    +0.138 C 
BRANCH  15  16
ATOM     16  C   UNL     1     -34.508  -8.758  16.504  0.00  0.00    -0.028 A 
ATOM     17  C   UNL     1     -34.828  -7.656  15.697  0.00  0.00    +0.005 A 
ATOM     18  C   UNL     1     -35.062  -7.829  14.331  0.00  0.00    +0.003 A 
ATOM     19  C   UNL     1     -34.970  -9.098  13.757  0.00  0.00    +0.033 A 
ATOM     20  C   UNL     1     -34.638 -10.214  14.544  0.00  0.00    +0.127 A 
ATOM     21  C   UNL     1     -34.405 -10.032  15.921  0.00  0.00    +0.038 A 
BRANCH  20  22
ATOM     22  N   UNL     1     -34.540 -11.521  13.949  0.00  0.00    +0.056 N 
ATOM     23  O   UNL     1     -34.646 -11.678  12.586  0.00  0.00    -0.126 OA
ATOM     24  O   UNL     1     -34.361 -12.533  14.658  0.00  0.00    -0.126 OA
ENDBRANCH  20  22
ENDBRANCH  15  16
ENDBRANCH  11  15
TORSDOF 4
ENDMDL
