MODEL 1
REMARK VINA RESULT:    -3.593      0.000      0.000
REMARK INTER + INTRA:          -5.094
REMARK INTER:                  -4.433
REMARK INTRA:                  -0.662
REMARK UNBOUND:                -0.662
REMARK  Name = 
REMARK  6 active torsions:
REMARK  status: ('A' for Active; 'I' for Inactive)
REMARK    1  A    between atoms: C_1  and  C_2
REMARK    2  A    between atoms: C_2  and  C_3
REMARK    3  A    between atoms: C_3  and  C_4
REMARK    4  A    between atoms: C_3  and  N_6
REMARK    5  A    between atoms: C_4  and  C_5
REMARK    6  A    between atoms: C_10  and  N_14
REMARK                            x       y       z     vdW  Elec       q    Type
REMARK                         _______ _______ _______ _____ _____    ______ ____
ROOT
ATOM      1  N   UNL     1     -30.707 -11.857  17.920  0.00  0.00    -0.311 N 
ATOM      2  C   UNL     1     -29.506 -12.250  18.596  0.00  0.00    +0.217 A 
ATOM      3  N   UNL     1     -28.292 -11.833  18.150  0.00  0.00    -0.221 NA
ATOM      4  C   UNL     1     -27.149 -12.199  18.782  0.00  0.00    +0.150 A 
ATOM      5  C   UNL     1     -27.200 -13.010  19.924  0.00  0.00    +0.184 A 
ATOM      6  C   UNL     1     -28.468 -13.456  20.358  0.00  0.00    +0.152 A 
ATOM      7  N   UNL     1     -28.617 -14.366  21.451  0.00  0.00    -0.341 N 
ATOM      8  N   UNL     1     -29.581 -13.056  19.686  0.00  0.00    -0.198 NA
ATOM      9  H   UNL     1     -31.619 -12.185  18.312  0.00  0.00    +0.149 HD
ATOM     10  H   UNL     1     -29.572 -14.612  21.792  0.00  0.00    +0.144 HD
ATOM     11  H   UNL     1     -27.810 -14.892  21.850  0.00  0.00    +0.144 HD
ENDROOT
BRANCH   5  12
ATOM     12  N   UNL     1     -25.987 -13.334  20.623  0.00  0.00    +0.061 N 
ATOM     13  O   UNL     1     -26.025 -13.618  21.968  0.00  0.00    -0.126 OA
ATOM     14  O   UNL     1     -24.938 -13.570  19.988  0.00  0.00    -0.126 OA
ENDBRANCH   5  12
BRANCH   1  15
ATOM     15  C   UNL     1     -30.696 -10.992  16.733  0.00  0.00    +0.073 C 
BRANCH  15  17
ATOM     16  C   UNL     1     -30.918 -12.864  15.002  0.00  0.00    +0.006 C 
ATOM     17  C   UNL     1     -31.570 -11.626  15.616  0.00  0.00    +0.019 C 
ENDBRANCH  15  17
BRANCH  15  18
ATOM     18  C   UNL     1     -31.184  -9.577  17.126  0.00  0.00    +0.019 C 
ATOM     19  C   UNL     1     -32.653  -9.333  16.786  0.00  0.00    +0.006 C 
ENDBRANCH  15  18
ENDBRANCH   1  15
TORSDOF 4
ENDMDL
MODEL 2
REMARK VINA RESULT:    -3.582      2.504      3.404
REMARK INTER + INTRA:          -5.081
REMARK INTER:                  -4.451
REMARK INTRA:                  -0.630
REMARK UNBOUND:                -0.662
REMARK  Name = 
REMARK  6 active torsions:
REMARK  status: ('A' for Active; 'I' for Inactive)
REMARK    1  A    between atoms: C_1  and  C_2
REMARK    2  A    between atoms: C_2  and  C_3
REMARK    3  A    between atoms: C_3  and  C_4
REMARK    4  A    between atoms: C_3  and  N_6
REMARK    5  A    between atoms: C_4  and  C_5
REMARK    6  A    between atoms: C_10  and  N_14
REMARK                            x       y       z     vdW  Elec       q    Type
REMARK                         _______ _______ _______ _____ _____    ______ ____
ROOT
ATOM      1  N   UNL     1     -31.656 -12.948  14.900  0.00  0.00    -0.311 N 
ATOM      2  C   UNL     1     -30.883 -12.506  16.023  0.00  0.00    +0.217 A 
ATOM      3  N   UNL     1     -30.622 -11.186  16.209  0.00  0.00    -0.221 NA
ATOM      4  C   UNL     1     -29.891 -10.758  17.269  0.00  0.00    +0.150 A 
ATOM      5  C   UNL     1     -29.397 -11.675  18.205  0.00  0.00    +0.184 A 
ATOM      6  C   UNL     1     -29.653 -13.046  17.981  0.00  0.00    +0.152 A 
ATOM      7  N   UNL     1     -29.108 -14.066  18.824  0.00  0.00    -0.341 N 
ATOM      8  N   UNL     1     -30.394 -13.418  16.903  0.00  0.00    -0.198 NA
ATOM      9  H   UNL     1     -31.848 -13.972  14.810  0.00  0.00    +0.149 HD
ATOM     10  H   UNL     1     -29.382 -15.062  18.674  0.00  0.00    +0.144 HD
ATOM     11  H   UNL     1     -28.349 -13.871  19.512  0.00  0.00    +0.144 HD
ENDROOT
BRANCH   5  12
ATOM     12  N   UNL     1     -28.682 -11.202  19.358  0.00  0.00    +0.061 N 
ATOM     13  O   UNL     1     -29.332 -10.445  20.305  0.00  0.00    -0.126 OA
ATOM     14  O   UNL     1     -27.543 -11.643  19.618  0.00  0.00    -0.126 OA
ENDBRANCH   5  12
BRANCH   1  15
ATOM     15  C   UNL     1     -32.209 -12.016  13.909  0.00  0.00    +0.073 C 
BRANCH  15  17
ATOM     16  C   UNL     1     -33.451 -13.076  11.938  0.00  0.00    +0.006 C 
ATOM     17  C   UNL     1     -32.095 -12.635  12.489  0.00  0.00    +0.019 C 
ENDBRANCH  15  17
BRANCH  15  18
ATOM     18  C   UNL     1     -33.671 -11.677  14.284  0.00  0.00    +0.019 C 
ATOM     19  C   UNL     1     -33.872 -10.207  14.648  0.00  0.00    +0.006 C 
ENDBRANCH  15  18
ENDBRANCH   1  15
TORSDOF 4
ENDMDL
MODEL 3
REMARK VINA RESULT:    -3.544      1.212      1.455
REMARK INTER + INTRA:          -5.034
REMARK INTER:                  -4.392
REMARK INTRA:                  -0.642
REMARK UNBOUND:                -0.662
REMARK  Name = 
REMARK  6 active torsions:
REMARK  status: ('A' for Active; 'I' for Inactive)
REMARK    1  A    between atoms: C_1  and  C_2
REMARK    2  A    between atoms: C_2  and  C_3
REMARK    3  A    between atoms: C_3  and  C_4
REMARK    4  A    between atoms: C_3  and  N_6
REMARK    5  A    between atoms: C_4  and  C_5
REMARK    6  A    between atoms: C_10  and  N_14
REMARK                            x       y       z     vdW  Elec       q    Type
REMARK                         _______ _______ _______ _____ _____    ______ ____
ROOT
ATOM      1  N   UNL     1     -31.055 -11.098  18.010  0.00  0.00    -0.311 N 
ATOM      2  C   UNL     1     -29.758 -11.563  18.406  0.00  0.00    +0.217 A 
ATOM      3  N   UNL     1     -28.636 -10.915  17.998  0.00  0.00    -0.221 NA
ATOM      4  C   UNL     1     -27.404 -11.347  18.367  0.00  0.00    +0.150 A 
ATOM      5  C   UNL     1     -27.265 -12.471  19.193  0.00  0.00    +0.184 A 
ATOM      6  C   UNL     1     -28.441 -13.147  19.585  0.00  0.00    +0.152 A 
ATOM      7  N   UNL     1     -28.399 -14.360  20.343  0.00  0.00    -0.341 N 
ATOM      8  N   UNL     1     -29.650 -12.669  19.186  0.00  0.00    -0.198 NA
ATOM      9  H   UNL     1     -31.891 -11.617  18.366  0.00  0.00    +0.149 HD
ATOM     10  H   UNL     1     -29.289 -14.790  20.680  0.00  0.00    +0.144 HD
ATOM     11  H   UNL     1     -27.520 -14.904  20.474  0.00  0.00    +0.144 HD
ENDROOT
BRANCH   5  12
ATOM     12  N   UNL     1     -25.958 -12.876  19.631  0.00  0.00    +0.061 N 
ATOM     13  O   UNL     1     -25.722 -14.192  19.958  0.00  0.00    -0.126 OA
ATOM     14  O   UNL     1     -24.986 -12.102  19.514  0.00  0.00    -0.126 OA
ENDBRANCH   5  12
BRANCH   1  15
ATOM     15  C   UNL     1     -31.242  -9.913  17.163  0.00  0.00    +0.073 C 
BRANCH  15  17
ATOM     16  C   UNL     1     -32.632 -10.505  15.097  0.00  0.00    +0.006 C 
ATOM     17  C   UNL     1     -31.225 -10.331  15.667  0.00  0.00    +0.019 C 
ENDBRANCH  15  17
BRANCH  15  18
ATOM     18  C   UNL     1     -32.559  -9.204  17.557  0.00  0.00    +0.019 C 
ATOM     19  C   UNL     1     -32.816  -9.207  19.063  0.00  0.00    +0.006 C 
ENDBRANCH  15  18
ENDBRANCH   1  15
TORSDOF 4
ENDMDL
MODEL 4
REMARK VINA RESULT:    -3.495      2.785      3.874
REMARK INTER + INTRA:          -4.974
REMARK INTER:                  -4.331
REMARK INTRA:                  -0.643
REMARK UNBOUND:                -0.662
REMARK  Name = 
REMARK  6 active torsions:
REMARK  status: ('A' for Active; 'I' for Inactive)
REMARK    1  A    between atoms: C_1  and  C_2
REMARK    2  A    between atoms: C_2  and  C_3
REMARK    3  A    between atoms: C_3  and  C_4
REMARK    4  A    between atoms: C_3  and  N_6
REMARK    5  A    between atoms: C_4  and  C_5
REMARK    6  A    between atoms: C_10  and  N_14
REMARK                            x       y       z     vdW  Elec       q    Type
REMARK                         _______ _______ _______ _____ _____    ______ ____
ROOT
ATOM      1  N   UNL     1     -31.134 -13.999  15.298  0.00  0.00    -0.311 N 
ATOM      2  C   UNL     1     -30.753 -13.305  16.493  0.00  0.00    +0.217 A 
ATOM      3  N   UNL     1     -30.170 -12.080  16.427  0.00  0.00    -0.221 NA
ATOM      4  C   UNL     1     -29.806 -11.414  17.552  0.00  0.00    +0.150 A 
ATOM      5  C   UNL     1     -30.038 -11.978  18.814  0.00  0.00    +0.184 A 
ATOM      6  C   UNL     1     -30.619 -13.264  18.863  0.00  0.00    +0.152 A 
ATOM      7  N   UNL     1     -30.804 -13.964  20.097  0.00  0.00    -0.341 N 
ATOM      8  N   UNL     1     -30.966 -13.884  17.703  0.00  0.00    -0.198 NA
ATOM      9  H   UNL     1     -31.599 -14.931  15.400  0.00  0.00    +0.149 HD
ATOM     10  H   UNL     1     -31.308 -14.879  20.102  0.00  0.00    +0.144 HD
ATOM     11  H   UNL     1     -30.350 -13.658  20.983  0.00  0.00    +0.144 HD
ENDROOT
BRANCH   5  12
ATOM     12  N   UNL     1     -29.708 -11.233  19.997  0.00  0.00    +0.061 N 
ATOM     13  O   UNL     1     -29.194 -11.883  21.095  0.00  0.00    -0.126 OA
ATOM     14  O   UNL     1     -29.681  -9.985  19.970  0.00  0.00    -0.126 OA
ENDBRANCH   5  12
BRANCH   1  15
ATOM     15  C   UNL     1     -30.928 -13.433  13.959  0.00  0.00    +0.073 C 
BRANCH  15  17
ATOM     16  C   UNL     1     -28.802 -14.762  13.438  0.00  0.00    +0.006 C 
ATOM     17  C   UNL     1     -30.254 -14.492  13.043  0.00  0.00    +0.019 C 
ENDBRANCH  15  17
BRANCH  15  18
ATOM     18  C   UNL     1     -32.282 -12.947  13.393  0.00  0.00    +0.019 C 
ATOM     19  C   UNL     1     -32.532 -13.403  11.956  0.00  0.00    +0.006 C 
ENDBRANCH  15  18
ENDBRANCH   1  15
TORSDOF 4
ENDMDL
MODEL 5
REMARK VINA RESULT:    -3.474      2.543      4.062
REMARK INTER + INTRA:          -4.948
REMARK INTER:                  -4.399
REMARK INTRA:                  -0.549
REMARK UNBOUND:                -0.662
REMARK  Name = 
REMARK  6 active torsions:
REMARK  status: ('A' for Active; 'I' for Inactive)
REMARK    1  A    between atoms: C_1  and  C_2
REMARK    2  A    between atoms: C_2  and  C_3
REMARK    3  A    between atoms: C_3  and  C_4
REMARK    4  A    between atoms: C_3  and  N_6
REMARK    5  A    between atoms: C_4  and  C_5
REMARK    6  A    between atoms: C_10  and  N_14
REMARK                            x       y       z     vdW  Elec       q    Type
REMARK                         _______ _______ _______ _____ _____    ______ ____
ROOT
ATOM      1  N   UNL     1     -29.238 -13.910  15.332  0.00  0.00    -0.311 N 
ATOM      2  C   UNL     1     -29.363 -13.644  16.735  0.00  0.00    +0.217 A 
ATOM      3  N   UNL     1     -30.557 -13.797  17.366  0.00  0.00    -0.221 NA
ATOM      4  C   UNL     1     -30.686 -13.548  18.693  0.00  0.00    +0.150 A 
ATOM      5  C   UNL     1     -29.579 -13.136  19.447  0.00  0.00    +0.184 A 
ATOM      6  C   UNL     1     -28.353 -12.956  18.770  0.00  0.00    +0.152 A 
ATOM      7  N   UNL     1     -27.192 -12.445  19.431  0.00  0.00    -0.341 N 
ATOM      8  N   UNL     1     -28.281 -13.223  17.438  0.00  0.00    -0.198 NA
ATOM      9  H   UNL     1     -28.295 -13.799  14.895  0.00  0.00    +0.149 HD
ATOM     10  H   UNL     1     -26.283 -12.398  18.918  0.00  0.00    +0.144 HD
ATOM     11  H   UNL     1     -27.239 -12.000  20.373  0.00  0.00    +0.144 HD
ENDROOT
BRANCH   5  12
ATOM     12  N   UNL     1     -29.715 -12.941  20.864  0.00  0.00    +0.061 N 
ATOM     13  O   UNL     1     -28.642 -13.171  21.694  0.00  0.00    -0.126 OA
ATOM     14  O   UNL     1     -30.721 -12.364  21.327  0.00  0.00    -0.126 OA
ENDBRANCH   5  12
BRANCH   1  15
ATOM     15  C   UNL     1     -30.370 -14.363  14.512  0.00  0.00    +0.073 C 
BRANCH  15  17
ATOM     16  C   UNL     1     -31.722 -13.146  12.711  0.00  0.00    +0.006 C 
ATOM     17  C   UNL     1     -31.287 -13.155  14.177  0.00  0.00    +0.019 C 
ENDBRANCH  15  17
BRANCH  15  18
ATOM     18  C   UNL     1     -29.834 -15.062  13.241  0.00  0.00    +0.019 C 
ATOM     19  C   UNL     1     -28.312 -15.006  13.121  0.00  0.00    +0.006 C 
ENDBRANCH  15  18
ENDBRANCH   1  15
TORSDOF 4
ENDMDL
MODEL 6
REMARK VINA RESULT:    -3.463      4.048      5.632
REMARK INTER + INTRA:          -4.934
REMARK INTER:                  -4.604
REMARK INTRA:                  -0.330
REMARK UNBOUND:                -0.662
REMARK  Name = 
REMARK  6 active torsions:
REMARK  status: ('A' for Active; 'I' for Inactive)
REMARK    1  A    between atoms: C_1  and  C_2
REMARK    2  A    between atoms: C_2  and  C_3
REMARK    3  A    between atoms: C_3  and  C_4
REMARK    4  A    between atoms: C_3  and  N_6
REMARK    5  A    between atoms: C_4  and  C_5
REMARK    6  A    between atoms: C_10  and  N_14
REMARK                            x       y       z     vdW  Elec       q    Type
REMARK                         _______ _______ _______ _____ _____    ______ ____
ROOT
ATOM      1  N   UNL     1     -31.821 -12.054  14.165  0.00  0.00    -0.311 N 
ATOM      2  C   UNL     1     -31.571 -11.247  15.323  0.00  0.00    +0.217 A 
ATOM      3  N   UNL     1     -30.508 -11.503  16.130  0.00  0.00    -0.221 NA
ATOM      4  C   UNL     1     -30.263 -10.745  17.229  0.00  0.00    +0.150 A 
ATOM      5  C   UNL     1     -31.100  -9.668  17.547  0.00  0.00    +0.184 A 
ATOM      6  C   UNL     1     -32.215  -9.433  16.712  0.00  0.00    +0.152 A 
ATOM      7  N   UNL     1     -33.183  -8.421  17.009  0.00  0.00    -0.341 N 
ATOM      8  N   UNL     1     -32.412 -10.224  15.623  0.00  0.00    -0.198 NA
ATOM      9  H   UNL     1     -32.638 -11.805  13.562  0.00  0.00    +0.149 HD
ATOM     10  H   UNL     1     -33.950  -8.225  16.329  0.00  0.00    +0.144 HD
ATOM     11  H   UNL     1     -33.226  -7.949  17.937  0.00  0.00    +0.144 HD
ENDROOT
BRANCH   5  12
ATOM     12  N   UNL     1     -30.790  -8.833  18.674  0.00  0.00    +0.061 N 
ATOM     13  O   UNL     1     -31.734  -7.956  19.158  0.00  0.00    -0.126 OA
ATOM     14  O   UNL     1     -29.762  -9.043  19.350  0.00  0.00    -0.126 OA
ENDBRANCH   5  12
BRANCH   1  15
ATOM     15  C   UNL     1     -30.954 -13.178  13.787  0.00  0.00    +0.073 C 
BRANCH  15  17
ATOM     16  C   UNL     1     -29.649 -14.941  15.106  0.00  0.00    +0.006 C 
ATOM     17  C   UNL     1     -31.005 -14.271  14.890  0.00  0.00    +0.019 C 
ENDBRANCH  15  17
BRANCH  15  18
ATOM     18  C   UNL     1     -31.391 -13.720  12.406  0.00  0.00    +0.019 C 
ATOM     19  C   UNL     1     -32.744 -13.177  11.948  0.00  0.00    +0.006 C 
ENDBRANCH  15  18
ENDBRANCH   1  15
TORSDOF 4
ENDMDL
MODEL 7
REMARK VINA RESULT:    -3.277      5.009      6.193
REMARK INTER + INTRA:          -4.705
REMARK INTER:                  -4.044
REMARK INTRA:                  -0.660
REMARK UNBOUND:                -0.662
REMARK  Name = 
REMARK  6 active torsions:
REMARK  status: ('A' for Active; 'I' for Inactive)
REMARK    1  A    between atoms: C_1  and  C_2
REMARK    2  A    between atoms: C_2  and  C_3
REMARK    3  A    between atoms: C_3  and  C_4
REMARK    4  A    between atoms: C_3  and  N_6
REMARK    5  A    between atoms: C_4  and  C_5
REMARK    6  A    between atoms: C_10  and  N_14
REMARK                            x       y       z     vdW  Elec       q    Type
REMARK                         _______ _______ _______ _____ _____    ______ ____
ROOT
ATOM      1  N   UNL     1     -31.654 -12.032  13.862  0.00  0.00    -0.311 N 
ATOM      2  C   UNL     1     -32.064 -11.703  15.195  0.00  0.00    +0.217 A 
ATOM      3  N   UNL     1     -32.508 -12.669  16.042  0.00  0.00    -0.221 NA
ATOM      4  C   UNL     1     -32.898 -12.369  17.306  0.00  0.00    +0.150 A 
ATOM      5  C   UNL     1     -32.839 -11.048  17.770  0.00  0.00    +0.184 A 
ATOM      6  C   UNL     1     -32.402 -10.053  16.868  0.00  0.00    +0.152 A 
ATOM      7  N   UNL     1     -32.401  -8.665  17.215  0.00  0.00    -0.341 N 
ATOM      8  N   UNL     1     -32.021 -10.412  15.613  0.00  0.00    -0.198 NA
ATOM      9  H   UNL     1     -31.300 -11.258  13.254  0.00  0.00    +0.149 HD
ATOM     10  H   UNL     1     -31.998  -7.967  16.551  0.00  0.00    +0.144 HD
ATOM     11  H   UNL     1     -32.897  -8.302  18.056  0.00  0.00    +0.144 HD
ENDROOT
BRANCH   5  12
ATOM     12  N   UNL     1     -33.193 -10.755  19.132  0.00  0.00    +0.061 N 
ATOM     13  O   UNL     1     -33.882  -9.602  19.428  0.00  0.00    -0.126 OA
ATOM     14  O   UNL     1     -33.072 -11.628  20.016  0.00  0.00    -0.126 OA
ENDBRANCH   5  12
BRANCH   1  15
ATOM     15  C   UNL     1     -31.681 -13.406  13.346  0.00  0.00    +0.073 C 
BRANCH  15  17
ATOM     16  C   UNL     1     -33.726 -12.785  11.938  0.00  0.00    +0.006 C 
ATOM     17  C   UNL     1     -32.337 -13.423  11.938  0.00  0.00    +0.019 C 
ENDBRANCH  15  17
BRANCH  15  18
ATOM     18  C   UNL     1     -30.243 -13.976  13.328  0.00  0.00    +0.019 C 
ATOM     19  C   UNL     1     -29.941 -14.882  14.520  0.00  0.00    +0.006 C 
ENDBRANCH  15  18
ENDBRANCH   1  15
TORSDOF 4
ENDMDL
MODEL 8
REMARK VINA RESULT:    -3.264      3.460      4.668
REMARK INTER + INTRA:          -4.689
REMARK INTER:                  -4.205
REMARK INTRA:                  -0.484
REMARK UNBOUND:                -0.662
REMARK  Name = 
REMARK  6 active torsions:
REMARK  status: ('A' for Active; 'I' for Inactive)
REMARK    1  A    between atoms: C_1  and  C_2
REMARK    2  A    between atoms: C_2  and  C_3
REMARK    3  A    between atoms: C_3  and  C_4
REMARK    4  A    between atoms: C_3  and  N_6
REMARK    5  A    between atoms: C_4  and  C_5
REMARK    6  A    between atoms: C_10  and  N_14
REMARK                            x       y       z     vdW  Elec       q    Type
REMARK                         _______ _______ _______ _____ _____    ______ ____
ROOT
ATOM      1  N   UNL     1     -29.492 -13.378  16.897  0.00  0.00    -0.311 N 
ATOM      2  C   UNL     1     -29.787 -12.111  17.498  0.00  0.00    +0.217 A 
ATOM      3  N   UNL     1     -30.360 -11.116  16.772  0.00  0.00    -0.221 NA
ATOM      4  C   UNL     1     -30.644  -9.913  17.331  0.00  0.00    +0.150 A 
ATOM      5  C   UNL     1     -30.359  -9.676  18.683  0.00  0.00    +0.184 A 
ATOM      6  C   UNL     1     -29.739 -10.712  19.415  0.00  0.00    +0.152 A 
ATOM      7  N   UNL     1     -29.319 -10.533  20.771  0.00  0.00    -0.341 N 
ATOM      8  N   UNL     1     -29.479 -11.898  18.803  0.00  0.00    -0.198 NA
ATOM      9  H   UNL     1     -29.070 -14.120  17.501  0.00  0.00    +0.149 HD
ATOM     10  H   UNL     1     -28.935 -11.344  21.305  0.00  0.00    +0.144 HD
ATOM     11  H   UNL     1     -29.268  -9.593  21.218  0.00  0.00    +0.144 HD
ENDROOT
BRANCH   5  12
ATOM     12  N   UNL     1     -30.726  -8.421  19.278  0.00  0.00    +0.061 N 
ATOM     13  O   UNL     1     -31.935  -7.842  18.967  0.00  0.00    -0.126 OA
ATOM     14  O   UNL     1     -30.065  -7.958  20.231  0.00  0.00    -0.126 OA
ENDBRANCH   5  12
BRANCH   1  15
ATOM     15  C   UNL     1     -29.794 -13.672  15.490  0.00  0.00    +0.073 C 
BRANCH  15  17
ATOM     16  C   UNL     1     -28.310 -14.818  13.747  0.00  0.00    +0.006 C 
ATOM     17  C   UNL     1     -29.072 -14.979  15.062  0.00  0.00    +0.019 C 
ENDBRANCH  15  17
BRANCH  15  18
ATOM     18  C   UNL     1     -31.327 -13.762  15.302  0.00  0.00    +0.019 C 
ATOM     19  C   UNL     1     -31.823 -13.036  14.053  0.00  0.00    +0.006 C 
ENDBRANCH  15  18
ENDBRANCH   1  15
TORSDOF 4
ENDMDL
