MODEL 1
REMARK VINA RESULT:    -4.237      0.000      0.000
REMARK INTER + INTRA:          -9.317
REMARK INTER:                  -6.342
REMARK INTRA:                  -2.975
REMARK UNBOUND:                -2.975
REMARK  Name = 
REMARK  10 active torsions:
REMARK  status: ('A' for Active; 'I' for Inactive)
REMARK    1  A    between atoms: C_1  and  O_2
REMARK    2  A    between atoms: O_2  and  C_3
REMARK    3  A    between atoms: C_8  and  O_9
REMARK    4  A    between atoms: O_9  and  C_10
REMARK    5  A    between atoms: C_10  and  C_11
REMARK    6  A    between atoms: N_13  and  C_14
REMARK    7  A    between atoms: C_14  and  C_15
REMARK    8  A    between atoms: C_14  and  C_19
REMARK    9  A    between atoms: C_15  and  C_16
REMARK   10  A    between atoms: C_16  and  O_18
REMARK                            x       y       z     vdW  Elec       q    Type
REMARK                         _______ _______ _______ _____ _____    ______ ____
ROOT
ATOM      1  C   UNL     1     -28.433 -11.017  18.423  0.00  0.00    +0.251 C 
ATOM      2  O   UNL     1     -27.736 -10.273  17.682  0.00  0.00    -0.272 OA
ATOM      3  N   UNL     1     -29.744 -10.608  18.835  0.00  0.00    -0.305 N 
ATOM      4  H   UNL     1     -30.246 -11.198  19.537  0.00  0.00    +0.149 HD
ENDROOT
BRANCH   1   5
ATOM      5  C   UNL     1     -27.926 -12.369  18.802  0.00  0.00    +0.324 C 
BRANCH   5   6
ATOM      6  O   UNL     1     -28.020 -13.222  17.665  0.00  0.00    -0.479 OA
BRANCH   6  12
ATOM      7  C   UNL     1     -29.210 -14.260  15.847  0.00  0.00    +0.162 A 
ATOM      8  C   UNL     1     -30.396 -14.794  15.305  0.00  0.00    +0.049 A 
ATOM      9  C   UNL     1     -31.567 -14.824  16.067  0.00  0.00    +0.004 A 
ATOM     10  C   UNL     1     -31.568 -14.326  17.370  0.00  0.00    +0.004 A 
ATOM     11  C   UNL     1     -30.399 -13.792  17.917  0.00  0.00    +0.049 A 
ATOM     12  C   UNL     1     -29.213 -13.754  17.157  0.00  0.00    +0.163 A 
BRANCH   7  14
ATOM     13  C   UNL     1     -27.810 -14.840  13.855  0.00  0.00    +0.277 C 
ATOM     14  O   UNL     1     -28.011 -14.215  15.119  0.00  0.00    -0.491 OA
ENDBRANCH   7  14
ENDBRANCH   6  12
ENDBRANCH   5   6
ENDBRANCH   1   5
BRANCH   3  15
ATOM     15  C   UNL     1     -30.495  -9.581  18.104  0.00  0.00    +0.114 C 
BRANCH  15  16
ATOM     16  C   UNL     1     -31.438 -10.243  17.119  0.00  0.00    -0.027 A 
ATOM     17  C   UNL     1     -32.737 -10.620  17.510  0.00  0.00    +0.005 A 
ATOM     18  C   UNL     1     -33.602 -11.226  16.594  0.00  0.00    +0.000 A 
ATOM     19  C   UNL     1     -33.183 -11.460  15.283  0.00  0.00    +0.000 A 
ATOM     20  C   UNL     1     -31.899 -11.081  14.882  0.00  0.00    +0.000 A 
ATOM     21  C   UNL     1     -31.031 -10.469  15.793  0.00  0.00    +0.005 A 
ENDBRANCH  15  16
BRANCH  15  22
ATOM     22  C   UNL     1     -31.284  -8.683  19.072  0.00  0.00    +0.147 C 
BRANCH  22  23
ATOM     23  C   UNL     1     -30.565  -8.533  20.378  0.00  0.00    +0.307 C 
ATOM     24  O   UNL     1     -30.641  -9.442  21.248  0.00  0.00    -0.251 OA
BRANCH  23  25
ATOM     25  O   UNL     1     -29.845  -7.373  20.646  0.00  0.00    -0.481 OA
ATOM     26  H   UNL     1     -28.866  -7.298  20.393  0.00  0.00    +0.295 HD
ENDBRANCH  23  25
ENDBRANCH  22  23
ENDBRANCH  15  22
ENDBRANCH   3  15
TORSDOF 9
ENDMDL
MODEL 2
REMARK VINA RESULT:    -4.137      3.080      4.385
REMARK INTER + INTRA:          -9.169
REMARK INTER:                  -6.536
REMARK INTRA:                  -2.633
REMARK UNBOUND:                -2.975
REMARK  Name = 
REMARK  10 active torsions:
REMARK  status: ('A' for Active; 'I' for Inactive)
REMARK    1  A    between atoms: C_1  and  O_2
REMARK    2  A    between atoms: O_2  and  C_3
REMARK    3  A    between atoms: C_8  and  O_9
REMARK    4  A    between atoms: O_9  and  C_10
REMARK    5  A    between atoms: C_10  and  C_11
REMARK    6  A    between atoms: N_13  and  C_14
REMARK    7  A    between atoms: C_14  and  C_15
REMARK    8  A    between atoms: C_14  and  C_19
REMARK    9  A    between atoms: C_15  and  C_16
REMARK   10  A    between atoms: C_16  and  O_18
REMARK                            x       y       z     vdW  Elec       q    Type
REMARK                         _______ _______ _______ _____ _____    ______ ____
ROOT
ATOM      1  C   UNL     1     -32.926 -10.698  17.473  0.00  0.00    +0.251 C 
ATOM      2  O   UNL     1     -32.218  -9.655  17.511  0.00  0.00    -0.272 OA
ATOM      3  N   UNL     1     -33.751 -10.973  16.333  0.00  0.00    -0.305 N 
ATOM      4  H   UNL     1     -34.406 -11.787  16.385  0.00  0.00    +0.149 HD
ENDROOT
BRANCH   1   5
ATOM      5  C   UNL     1     -32.838 -11.692  18.582  0.00  0.00    +0.324 C 
BRANCH   5   6
ATOM      6  O   UNL     1     -31.508 -12.198  18.631  0.00  0.00    -0.479 OA
BRANCH   6  12
ATOM      7  C   UNL     1     -29.616 -12.802  17.269  0.00  0.00    +0.162 A 
ATOM      8  C   UNL     1     -29.018 -13.636  16.302  0.00  0.00    +0.049 A 
ATOM      9  C   UNL     1     -29.731 -14.704  15.755  0.00  0.00    +0.004 A 
ATOM     10  C   UNL     1     -31.043 -14.952  16.162  0.00  0.00    +0.004 A 
ATOM     11  C   UNL     1     -31.647 -14.132  17.118  0.00  0.00    +0.049 A 
ATOM     12  C   UNL     1     -30.937 -13.050  17.675  0.00  0.00    +0.163 A 
BRANCH   7  14
ATOM     13  C   UNL     1     -27.891 -11.848  18.811  0.00  0.00    +0.277 C 
ATOM     14  O   UNL     1     -28.932 -11.722  17.848  0.00  0.00    -0.491 OA
ENDBRANCH   7  14
ENDBRANCH   6  12
ENDBRANCH   5   6
ENDBRANCH   1   5
BRANCH   3  15
ATOM     15  C   UNL     1     -33.499 -10.347  15.031  0.00  0.00    +0.114 C 
BRANCH  15  16
ATOM     16  C   UNL     1     -33.226 -11.418  13.994  0.00  0.00    -0.027 A 
ATOM     17  C   UNL     1     -34.247 -11.861  13.132  0.00  0.00    +0.005 A 
ATOM     18  C   UNL     1     -33.986 -12.846  12.175  0.00  0.00    +0.000 A 
ATOM     19  C   UNL     1     -32.708 -13.397  12.067  0.00  0.00    +0.000 A 
ATOM     20  C   UNL     1     -31.684 -12.957  12.911  0.00  0.00    +0.000 A 
ATOM     21  C   UNL     1     -31.938 -11.968  13.867  0.00  0.00    +0.005 A 
ENDBRANCH  15  16
BRANCH  15  22
ATOM     22  C   UNL     1     -34.693  -9.479  14.598  0.00  0.00    +0.147 C 
BRANCH  22  23
ATOM     23  C   UNL     1     -34.544  -8.071  15.085  0.00  0.00    +0.307 C 
ATOM     24  O   UNL     1     -34.989  -7.115  14.396  0.00  0.00    -0.251 OA
BRANCH  23  25
ATOM     25  O   UNL     1     -33.878  -7.817  16.279  0.00  0.00    -0.481 OA
ATOM     26  H   UNL     1     -32.866  -7.859  16.330  0.00  0.00    +0.295 HD
ENDBRANCH  23  25
ENDBRANCH  22  23
ENDBRANCH  15  22
ENDBRANCH   3  15
TORSDOF 9
ENDMDL
MODEL 3
REMARK VINA RESULT:    -4.092      2.690      5.234
REMARK INTER + INTRA:          -9.100
REMARK INTER:                  -6.186
REMARK INTRA:                  -2.914
REMARK UNBOUND:                -2.975
REMARK  Name = 
REMARK  10 active torsions:
REMARK  status: ('A' for Active; 'I' for Inactive)
REMARK    1  A    between atoms: C_1  and  O_2
REMARK    2  A    between atoms: O_2  and  C_3
REMARK    3  A    between atoms: C_8  and  O_9
REMARK    4  A    between atoms: O_9  and  C_10
REMARK    5  A    between atoms: C_10  and  C_11
REMARK    6  A    between atoms: N_13  and  C_14
REMARK    7  A    between atoms: C_14  and  C_15
REMARK    8  A    between atoms: C_14  and  C_19
REMARK    9  A    between atoms: C_15  and  C_16
REMARK   10  A    between atoms: C_16  and  O_18
REMARK                            x       y       z     vdW  Elec       q    Type
REMARK                         _______ _______ _______ _____ _____    ______ ____
ROOT
ATOM      1  C   UNL     1     -31.208  -9.468  16.925  0.00  0.00    +0.251 C 
ATOM      2  O   UNL     1     -30.261  -9.138  16.161  0.00  0.00    -0.272 OA
ATOM      3  N   UNL     1     -32.250 -10.334  16.457  0.00  0.00    -0.305 N 
ATOM      4  H   UNL     1     -33.073 -10.496  17.081  0.00  0.00    +0.149 HD
ENDROOT
BRANCH   1   5
ATOM      5  C   UNL     1     -31.196  -9.025  18.351  0.00  0.00    +0.324 C 
BRANCH   5   6
ATOM      6  O   UNL     1     -29.916  -9.314  18.903  0.00  0.00    -0.479 OA
BRANCH   6  12
ATOM      7  C   UNL     1     -29.933 -11.338  20.209  0.00  0.00    +0.162 A 
ATOM      8  C   UNL     1     -29.440 -12.632  20.469  0.00  0.00    +0.049 A 
ATOM      9  C   UNL     1     -28.444 -13.182  19.660  0.00  0.00    +0.004 A 
ATOM     10  C   UNL     1     -27.929 -12.453  18.588  0.00  0.00    +0.004 A 
ATOM     11  C   UNL     1     -28.408 -11.168  18.321  0.00  0.00    +0.049 A 
ATOM     12  C   UNL     1     -29.412 -10.602  19.131  0.00  0.00    +0.163 A 
BRANCH   7  14
ATOM     13  C   UNL     1     -32.243 -11.289  21.170  0.00  0.00    +0.277 C 
ATOM     14  O   UNL     1     -30.937 -10.749  20.993  0.00  0.00    -0.491 OA
ENDBRANCH   7  14
ENDBRANCH   6  12
ENDBRANCH   5   6
ENDBRANCH   1   5
BRANCH   3  15
ATOM     15  C   UNL     1     -32.063 -11.204  15.291  0.00  0.00    +0.114 C 
BRANCH  15  16
ATOM     16  C   UNL     1     -31.443 -12.516  15.727  0.00  0.00    -0.027 A 
ATOM     17  C   UNL     1     -30.479 -13.157  14.926  0.00  0.00    +0.005 A 
ATOM     18  C   UNL     1     -29.909 -14.364  15.337  0.00  0.00    +0.000 A 
ATOM     19  C   UNL     1     -30.291 -14.944  16.549  0.00  0.00    +0.000 A 
ATOM     20  C   UNL     1     -31.241 -14.311  17.356  0.00  0.00    +0.000 A 
ATOM     21  C   UNL     1     -31.811 -13.099  16.952  0.00  0.00    +0.005 A 
ENDBRANCH  15  16
BRANCH  15  22
ATOM     22  C   UNL     1     -33.401 -11.459  14.575  0.00  0.00    +0.147 C 
BRANCH  22  23
ATOM     23  C   UNL     1     -34.551 -10.928  15.373  0.00  0.00    +0.307 C 
ATOM     24  O   UNL     1     -35.033  -9.794  15.109  0.00  0.00    -0.251 OA
BRANCH  23  25
ATOM     25  O   UNL     1     -35.062 -11.670  16.433  0.00  0.00    -0.481 OA
ATOM     26  H   UNL     1     -35.968 -11.451  16.833  0.00  0.00    +0.295 HD
ENDBRANCH  23  25
ENDBRANCH  22  23
ENDBRANCH  15  22
ENDBRANCH   3  15
TORSDOF 9
ENDMDL
MODEL 4
REMARK VINA RESULT:    -4.028      2.021      5.422
REMARK INTER + INTRA:          -9.005
REMARK INTER:                  -6.927
REMARK INTRA:                  -2.078
REMARK UNBOUND:                -2.975
REMARK  Name = 
REMARK  10 active torsions:
REMARK  status: ('A' for Active; 'I' for Inactive)
REMARK    1  A    between atoms: C_1  and  O_2
REMARK    2  A    between atoms: O_2  and  C_3
REMARK    3  A    between atoms: C_8  and  O_9
REMARK    4  A    between atoms: O_9  and  C_10
REMARK    5  A    between atoms: C_10  and  C_11
REMARK    6  A    between atoms: N_13  and  C_14
REMARK    7  A    between atoms: C_14  and  C_15
REMARK    8  A    between atoms: C_14  and  C_19
REMARK    9  A    between atoms: C_15  and  C_16
REMARK   10  A    between atoms: C_16  and  O_18
REMARK                            x       y       z     vdW  Elec       q    Type
REMARK                         _______ _______ _______ _____ _____    ______ ____
ROOT
ATOM      1  C   UNL     1     -30.103 -10.725  20.652  0.00  0.00    +0.251 C 
ATOM      2  O   UNL     1     -30.485 -11.422  21.630  0.00  0.00    -0.272 OA
ATOM      3  N   UNL     1     -29.105 -11.224  19.751  0.00  0.00    -0.305 N 
ATOM      4  H   UNL     1     -28.734 -10.576  19.019  0.00  0.00    +0.149 HD
ENDROOT
BRANCH   1   5
ATOM      5  C   UNL     1     -30.754  -9.410  20.381  0.00  0.00    +0.324 C 
BRANCH   5   6
ATOM      6  O   UNL     1     -30.436  -9.013  19.051  0.00  0.00    -0.479 OA
BRANCH   6  12
ATOM      7  C   UNL     1     -32.526  -9.309  17.891  0.00  0.00    +0.162 A 
ATOM      8  C   UNL     1     -33.249  -9.724  16.754  0.00  0.00    +0.049 A 
ATOM      9  C   UNL     1     -32.579 -10.245  15.645  0.00  0.00    +0.004 A 
ATOM     10  C   UNL     1     -31.188 -10.358  15.656  0.00  0.00    +0.004 A 
ATOM     11  C   UNL     1     -30.461  -9.951  16.777  0.00  0.00    +0.049 A 
ATOM     12  C   UNL     1     -31.127  -9.427  17.903  0.00  0.00    +0.163 A 
BRANCH   7  14
ATOM     13  C   UNL     1     -33.963  -7.599  19.021  0.00  0.00    +0.277 C 
ATOM     14  O   UNL     1     -33.159  -8.775  19.024  0.00  0.00    -0.491 OA
ENDBRANCH   7  14
ENDBRANCH   6  12
ENDBRANCH   5   6
ENDBRANCH   1   5
BRANCH   3  15
ATOM     15  C   UNL     1     -28.815 -12.658  19.641  0.00  0.00    +0.114 C 
BRANCH  15  16
ATOM     16  C   UNL     1     -29.498 -13.225  18.414  0.00  0.00    -0.027 A 
ATOM     17  C   UNL     1     -30.872 -13.536  18.434  0.00  0.00    +0.005 A 
ATOM     18  C   UNL     1     -31.496 -14.055  17.297  0.00  0.00    +0.000 A 
ATOM     19  C   UNL     1     -30.760 -14.267  16.129  0.00  0.00    +0.000 A 
ATOM     20  C   UNL     1     -29.399 -13.953  16.094  0.00  0.00    +0.000 A 
ATOM     21  C   UNL     1     -28.770 -13.428  17.229  0.00  0.00    +0.005 A 
ENDBRANCH  15  16
BRANCH  15  22
ATOM     22  C   UNL     1     -27.298 -12.908  19.569  0.00  0.00    +0.147 C 
BRANCH  22  23
ATOM     23  C   UNL     1     -26.861 -13.886  20.614  0.00  0.00    +0.307 C 
ATOM     24  O   UNL     1     -25.821 -13.664  21.291  0.00  0.00    -0.251 OA
BRANCH  23  25
ATOM     25  O   UNL     1     -27.580 -15.061  20.811  0.00  0.00    -0.481 OA
ATOM     26  H   UNL     1     -27.177 -15.838  21.323  0.00  0.00    +0.295 HD
ENDBRANCH  23  25
ENDBRANCH  22  23
ENDBRANCH  15  22
ENDBRANCH   3  15
TORSDOF 9
ENDMDL
MODEL 5
REMARK VINA RESULT:    -3.942      2.584      4.985
REMARK INTER + INTRA:          -8.876
REMARK INTER:                  -7.414
REMARK INTRA:                  -1.462
REMARK UNBOUND:                -2.975
REMARK  Name = 
REMARK  10 active torsions:
REMARK  status: ('A' for Active; 'I' for Inactive)
REMARK    1  A    between atoms: C_1  and  O_2
REMARK    2  A    between atoms: O_2  and  C_3
REMARK    3  A    between atoms: C_8  and  O_9
REMARK    4  A    between atoms: O_9  and  C_10
REMARK    5  A    between atoms: C_10  and  C_11
REMARK    6  A    between atoms: N_13  and  C_14
REMARK    7  A    between atoms: C_14  and  C_15
REMARK    8  A    between atoms: C_14  and  C_19
REMARK    9  A    between atoms: C_15  and  C_16
REMARK   10  A    between atoms: C_16  and  O_18
REMARK                            x       y       z     vdW  Elec       q    Type
REMARK                         _______ _______ _______ _____ _____    ______ ____
ROOT
ATOM      1  C   UNL     1     -28.929 -13.649  17.645  0.00  0.00    +0.251 C 
ATOM      2  O   UNL     1     -27.944 -12.904  17.393  0.00  0.00    -0.272 OA
ATOM      3  N   UNL     1     -29.303 -13.922  19.003  0.00  0.00    -0.305 N 
ATOM      4  H   UNL     1     -30.053 -14.630  19.173  0.00  0.00    +0.149 HD
ENDROOT
BRANCH   1   5
ATOM      5  C   UNL     1     -29.763 -14.177  16.526  0.00  0.00    +0.324 C 
BRANCH   5   6
ATOM      6  O   UNL     1     -29.812 -13.195  15.496  0.00  0.00    -0.479 OA
BRANCH   6  12
ATOM      7  C   UNL     1     -31.761 -11.799  15.266  0.00  0.00    +0.162 A 
ATOM      8  C   UNL     1     -32.928 -11.429  14.567  0.00  0.00    +0.049 A 
ATOM      9  C   UNL     1     -33.286 -12.094  13.392  0.00  0.00    +0.004 A 
ATOM     10  C   UNL     1     -32.489 -13.130  12.902  0.00  0.00    +0.004 A 
ATOM     11  C   UNL     1     -31.331 -13.506  13.587  0.00  0.00    +0.049 A 
ATOM     12  C   UNL     1     -30.962 -12.844  14.774  0.00  0.00    +0.163 A 
BRANCH   7  14
ATOM     13  C   UNL     1     -30.749  -9.870  16.498  0.00  0.00    +0.277 C 
ATOM     14  O   UNL     1     -31.362 -11.154  16.447  0.00  0.00    -0.491 OA
ENDBRANCH   7  14
ENDBRANCH   6  12
ENDBRANCH   5   6
ENDBRANCH   1   5
BRANCH   3  15
ATOM     15  C   UNL     1     -28.884 -13.051  20.107  0.00  0.00    +0.114 C 
BRANCH  15  16
ATOM     16  C   UNL     1     -30.070 -12.249  20.602  0.00  0.00    -0.027 A 
ATOM     17  C   UNL     1     -29.912 -11.282  21.614  0.00  0.00    +0.005 A 
ATOM     18  C   UNL     1     -31.010 -10.544  22.062  0.00  0.00    +0.000 A 
ATOM     19  C   UNL     1     -32.274 -10.759  21.508  0.00  0.00    +0.000 A 
ATOM     20  C   UNL     1     -32.440 -11.709  20.497  0.00  0.00    +0.000 A 
ATOM     21  C   UNL     1     -31.343 -12.448  20.040  0.00  0.00    +0.005 A 
ENDBRANCH  15  16
BRANCH  15  22
ATOM     22  C   UNL     1     -28.281 -13.876  21.258  0.00  0.00    +0.147 C 
BRANCH  22  23
ATOM     23  C   UNL     1     -26.828 -14.149  21.023  0.00  0.00    +0.307 C 
ATOM     24  O   UNL     1     -25.982 -13.879  21.918  0.00  0.00    -0.251 OA
BRANCH  23  25
ATOM     25  O   UNL     1     -26.406 -14.665  19.802  0.00  0.00    -0.481 OA
ATOM     26  H   UNL     1     -25.833 -14.112  19.174  0.00  0.00    +0.295 HD
ENDBRANCH  23  25
ENDBRANCH  22  23
ENDBRANCH  15  22
ENDBRANCH   3  15
TORSDOF 9
ENDMDL
MODEL 6
REMARK VINA RESULT:    -3.912      2.212      5.176
REMARK INTER + INTRA:          -8.831
REMARK INTER:                  -6.554
REMARK INTRA:                  -2.277
REMARK UNBOUND:                -2.975
REMARK  Name = 
REMARK  10 active torsions:
REMARK  status: ('A' for Active; 'I' for Inactive)
REMARK    1  A    between atoms: C_1  and  O_2
REMARK    2  A    between atoms: O_2  and  C_3
REMARK    3  A    between atoms: C_8  and  O_9
REMARK    4  A    between atoms: O_9  and  C_10
REMARK    5  A    between atoms: C_10  and  C_11
REMARK    6  A    between atoms: N_13  and  C_14
REMARK    7  A    between atoms: C_14  and  C_15
REMARK    8  A    between atoms: C_14  and  C_19
REMARK    9  A    between atoms: C_15  and  C_16
REMARK   10  A    between atoms: C_16  and  O_18
REMARK                            x       y       z     vdW  Elec       q    Type
REMARK                         _______ _______ _______ _____ _____    ______ ____
ROOT
ATOM      1  C   UNL     1     -31.345 -10.504  16.930  0.00  0.00    +0.251 C 
ATOM      2  O   UNL     1     -32.493 -10.032  17.145  0.00  0.00    -0.272 OA
ATOM      3  N   UNL     1     -31.170 -11.908  16.693  0.00  0.00    -0.305 N 
ATOM      4  H   UNL     1     -30.195 -12.279  16.628  0.00  0.00    +0.149 HD
ENDROOT
BRANCH   1   5
ATOM      5  C   UNL     1     -30.172  -9.586  16.833  0.00  0.00    +0.324 C 
BRANCH   5   6
ATOM      6  O   UNL     1     -29.541  -9.524  18.108  0.00  0.00    -0.479 OA
BRANCH   6  12
ATOM      7  C   UNL     1     -29.666 -10.978  20.024  0.00  0.00    +0.162 A 
ATOM      8  C   UNL     1     -29.185 -12.079  20.760  0.00  0.00    +0.049 A 
ATOM      9  C   UNL     1     -28.100 -12.822  20.289  0.00  0.00    +0.004 A 
ATOM     10  C   UNL     1     -27.486 -12.477  19.084  0.00  0.00    +0.004 A 
ATOM     11  C   UNL     1     -27.953 -11.387  18.346  0.00  0.00    +0.049 A 
ATOM     12  C   UNL     1     -29.045 -10.629  18.814  0.00  0.00    +0.163 A 
BRANCH   7  14
ATOM     13  C   UNL     1     -31.988 -10.747  20.930  0.00  0.00    +0.277 C 
ATOM     14  O   UNL     1     -30.757 -10.209  20.459  0.00  0.00    -0.491 OA
ENDBRANCH   7  14
ENDBRANCH   6  12
ENDBRANCH   5   6
ENDBRANCH   1   5
BRANCH   3  15
ATOM     15  C   UNL     1     -32.283 -12.759  16.258  0.00  0.00    +0.114 C 
BRANCH  15  16
ATOM     16  C   UNL     1     -32.342 -12.790  14.745  0.00  0.00    -0.027 A 
ATOM     17  C   UNL     1     -31.326 -13.415  13.998  0.00  0.00    +0.005 A 
ATOM     18  C   UNL     1     -31.390 -13.442  12.602  0.00  0.00    +0.000 A 
ATOM     19  C   UNL     1     -32.466 -12.850  11.938  0.00  0.00    +0.000 A 
ATOM     20  C   UNL     1     -33.485 -12.236  12.669  0.00  0.00    +0.000 A 
ATOM     21  C   UNL     1     -33.429 -12.210  14.067  0.00  0.00    +0.005 A 
ENDBRANCH  15  16
BRANCH  15  22
ATOM     22  C   UNL     1     -32.133 -14.187  16.813  0.00  0.00    +0.147 C 
BRANCH  22  23
ATOM     23  C   UNL     1     -30.918 -14.304  17.682  0.00  0.00    +0.307 C 
ATOM     24  O   UNL     1     -29.775 -14.389  17.159  0.00  0.00    -0.251 OA
BRANCH  23  25
ATOM     25  O   UNL     1     -31.056 -14.359  19.065  0.00  0.00    -0.481 OA
ATOM     26  H   UNL     1     -31.868 -13.960  19.523  0.00  0.00    +0.295 HD
ENDBRANCH  23  25
ENDBRANCH  22  23
ENDBRANCH  15  22
ENDBRANCH   3  15
TORSDOF 9
ENDMDL
MODEL 7
REMARK VINA RESULT:    -3.903      1.519      5.548
REMARK INTER + INTRA:          -8.817
REMARK INTER:                  -6.093
REMARK INTRA:                  -2.725
REMARK UNBOUND:                -2.975
REMARK  Name = 
REMARK  10 active torsions:
REMARK  status: ('A' for Active; 'I' for Inactive)
REMARK    1  A    between atoms: C_1  and  O_2
REMARK    2  A    between atoms: O_2  and  C_3
REMARK    3  A    between atoms: C_8  and  O_9
REMARK    4  A    between atoms: O_9  and  C_10
REMARK    5  A    between atoms: C_10  and  C_11
REMARK    6  A    between atoms: N_13  and  C_14
REMARK    7  A    between atoms: C_14  and  C_15
REMARK    8  A    between atoms: C_14  and  C_19
REMARK    9  A    between atoms: C_15  and  C_16
REMARK   10  A    between atoms: C_16  and  O_18
REMARK                            x       y       z     vdW  Elec       q    Type
REMARK                         _______ _______ _______ _____ _____    ______ ____
ROOT
ATOM      1  C   UNL     1     -28.712 -12.833  18.055  0.00  0.00    +0.251 C 
ATOM      2  O   UNL     1     -29.031 -13.570  19.027  0.00  0.00    -0.272 OA
ATOM      3  N   UNL     1     -29.193 -13.124  16.736  0.00  0.00    -0.305 N 
ATOM      4  H   UNL     1     -28.820 -12.559  15.940  0.00  0.00    +0.149 HD
ENDROOT
BRANCH   1   5
ATOM      5  C   UNL     1     -27.903 -11.602  18.294  0.00  0.00    +0.324 C 
BRANCH   5   6
ATOM      6  O   UNL     1     -28.670 -10.704  19.090  0.00  0.00    -0.479 OA
BRANCH   6  12
ATOM      7  C   UNL     1     -30.811  -9.769  19.676  0.00  0.00    +0.162 A 
ATOM      8  C   UNL     1     -32.029  -9.167  19.303  0.00  0.00    +0.049 A 
ATOM      9  C   UNL     1     -32.298  -8.896  17.959  0.00  0.00    +0.004 A 
ATOM     10  C   UNL     1     -31.360  -9.220  16.978  0.00  0.00    +0.004 A 
ATOM     11  C   UNL     1     -30.150  -9.819  17.336  0.00  0.00    +0.049 A 
ATOM     12  C   UNL     1     -29.869 -10.099  18.688  0.00  0.00    +0.163 A 
BRANCH   7  14
ATOM     13  C   UNL     1     -30.840 -11.263  21.685  0.00  0.00    +0.277 C 
ATOM     14  O   UNL     1     -30.498 -10.053  21.015  0.00  0.00    -0.491 OA
ENDBRANCH   7  14
ENDBRANCH   6  12
ENDBRANCH   5   6
ENDBRANCH   1   5
BRANCH   3  15
ATOM     15  C   UNL     1     -30.374 -13.967  16.516  0.00  0.00    +0.114 C 
BRANCH  15  16
ATOM     16  C   UNL     1     -31.535 -13.108  16.059  0.00  0.00    -0.027 A 
ATOM     17  C   UNL     1     -31.533 -12.516  14.781  0.00  0.00    +0.005 A 
ATOM     18  C   UNL     1     -32.611 -11.729  14.365  0.00  0.00    +0.000 A 
ATOM     19  C   UNL     1     -33.699 -11.525  15.216  0.00  0.00    +0.000 A 
ATOM     20  C   UNL     1     -33.716 -12.116  16.482  0.00  0.00    +0.000 A 
ATOM     21  C   UNL     1     -32.643 -12.909  16.902  0.00  0.00    +0.005 A 
ENDBRANCH  15  16
BRANCH  15  22
ATOM     22  C   UNL     1     -30.081 -15.062  15.475  0.00  0.00    +0.147 C 
BRANCH  22  23
ATOM     23  C   UNL     1     -28.866 -14.728  14.666  0.00  0.00    +0.307 C 
ATOM     24  O   UNL     1     -28.978 -14.466  13.438  0.00  0.00    -0.251 OA
BRANCH  23  25
ATOM     25  O   UNL     1     -27.609 -14.747  15.261  0.00  0.00    -0.481 OA
ATOM     26  H   UNL     1     -27.510 -14.715  16.269  0.00  0.00    +0.295 HD
ENDBRANCH  23  25
ENDBRANCH  22  23
ENDBRANCH  15  22
ENDBRANCH   3  15
TORSDOF 9
ENDMDL
MODEL 8
REMARK VINA RESULT:    -3.900      2.048      4.223
REMARK INTER + INTRA:          -8.814
REMARK INTER:                  -6.256
REMARK INTRA:                  -2.558
REMARK UNBOUND:                -2.975
REMARK  Name = 
REMARK  10 active torsions:
REMARK  status: ('A' for Active; 'I' for Inactive)
REMARK    1  A    between atoms: C_1  and  O_2
REMARK    2  A    between atoms: O_2  and  C_3
REMARK    3  A    between atoms: C_8  and  O_9
REMARK    4  A    between atoms: O_9  and  C_10
REMARK    5  A    between atoms: C_10  and  C_11
REMARK    6  A    between atoms: N_13  and  C_14
REMARK    7  A    between atoms: C_14  and  C_15
REMARK    8  A    between atoms: C_14  and  C_19
REMARK    9  A    between atoms: C_15  and  C_16
REMARK   10  A    between atoms: C_16  and  O_18
REMARK                            x       y       z     vdW  Elec       q    Type
REMARK                         _______ _______ _______ _____ _____    ______ ____
ROOT
ATOM      1  C   UNL     1     -30.585 -10.269  16.416  0.00  0.00    +0.251 C 
ATOM      2  O   UNL     1     -30.141  -9.092  16.324  0.00  0.00    -0.272 OA
ATOM      3  N   UNL     1     -30.199 -11.105  17.515  0.00  0.00    -0.305 N 
ATOM      4  H   UNL     1     -30.497 -12.107  17.499  0.00  0.00    +0.149 HD
ENDROOT
BRANCH   1   5
ATOM      5  C   UNL     1     -31.585 -10.762  15.425  0.00  0.00    +0.324 C 
BRANCH   5   6
ATOM      6  O   UNL     1     -31.714 -12.172  15.577  0.00  0.00    -0.479 OA
BRANCH   6  12
ATOM      7  C   UNL     1     -30.185 -14.025  15.408  0.00  0.00    +0.162 A 
ATOM      8  C   UNL     1     -29.512 -14.992  14.634  0.00  0.00    +0.049 A 
ATOM      9  C   UNL     1     -29.722 -15.062  13.256  0.00  0.00    +0.004 A 
ATOM     10  C   UNL     1     -30.601 -14.174  12.635  0.00  0.00    +0.004 A 
ATOM     11  C   UNL     1     -31.273 -13.210  13.391  0.00  0.00    +0.049 A 
ATOM     12  C   UNL     1     -31.066 -13.129  14.782  0.00  0.00    +0.163 A 
BRANCH   7  14
ATOM     13  C   UNL     1     -30.883 -14.490  17.767  0.00  0.00    +0.277 C 
ATOM     14  O   UNL     1     -30.006 -13.924  16.797  0.00  0.00    -0.491 OA
ENDBRANCH   7  14
ENDBRANCH   6  12
ENDBRANCH   5   6
ENDBRANCH   1   5
BRANCH   3  15
ATOM     15  C   UNL     1     -29.667 -10.543  18.761  0.00  0.00    +0.114 C 
BRANCH  15  16
ATOM     16  C   UNL     1     -30.808 -10.231  19.708  0.00  0.00    -0.027 A 
ATOM     17  C   UNL     1     -31.039  -8.914  20.148  0.00  0.00    +0.005 A 
ATOM     18  C   UNL     1     -32.096  -8.634  21.018  0.00  0.00    +0.000 A 
ATOM     19  C   UNL     1     -32.934  -9.661  21.456  0.00  0.00    +0.000 A 
ATOM     20  C   UNL     1     -32.721 -10.971  21.018  0.00  0.00    +0.000 A 
ATOM     21  C   UNL     1     -31.667 -11.256  20.143  0.00  0.00    +0.005 A 
ENDBRANCH  15  16
BRANCH  15  22
ATOM     22  C   UNL     1     -28.676 -11.515  19.425  0.00  0.00    +0.147 C 
BRANCH  22  23
ATOM     23  C   UNL     1     -27.561 -11.871  18.491  0.00  0.00    +0.307 C 
ATOM     24  O   UNL     1     -26.463 -11.255  18.556  0.00  0.00    -0.251 OA
BRANCH  23  25
ATOM     25  O   UNL     1     -27.750 -12.854  17.525  0.00  0.00    -0.481 OA
ATOM     26  H   UNL     1     -28.671 -13.240  17.350  0.00  0.00    +0.295 HD
ENDBRANCH  23  25
ENDBRANCH  22  23
ENDBRANCH  15  22
ENDBRANCH   3  15
TORSDOF 9
ENDMDL
MODEL 9
REMARK VINA RESULT:    -3.888      1.892      2.622
REMARK INTER + INTRA:          -8.795
REMARK INTER:                  -5.542
REMARK INTRA:                  -3.253
REMARK UNBOUND:                -2.975
REMARK  Name = 
REMARK  10 active torsions:
REMARK  status: ('A' for Active; 'I' for Inactive)
REMARK    1  A    between atoms: C_1  and  O_2
REMARK    2  A    between atoms: O_2  and  C_3
REMARK    3  A    between atoms: C_8  and  O_9
REMARK    4  A    between atoms: O_9  and  C_10
REMARK    5  A    between atoms: C_10  and  C_11
REMARK    6  A    between atoms: N_13  and  C_14
REMARK    7  A    between atoms: C_14  and  C_15
REMARK    8  A    between atoms: C_14  and  C_19
REMARK    9  A    between atoms: C_15  and  C_16
REMARK   10  A    between atoms: C_16  and  O_18
REMARK                            x       y       z     vdW  Elec       q    Type
REMARK                         _______ _______ _______ _____ _____    ______ ____
ROOT
ATOM      1  C   UNL     1     -30.850 -10.715  19.970  0.00  0.00    +0.251 C 
ATOM      2  O   UNL     1     -29.862  -9.943  19.841  0.00  0.00    -0.272 OA
ATOM      3  N   UNL     1     -32.106 -10.396  19.355  0.00  0.00    -0.305 N 
ATOM      4  H   UNL     1     -32.930 -11.001  19.575  0.00  0.00    +0.149 HD
ENDROOT
BRANCH   1   5
ATOM      5  C   UNL     1     -30.688 -12.010  20.694  0.00  0.00    +0.324 C 
BRANCH   5   6
ATOM      6  O   UNL     1     -29.788 -12.831  19.956  0.00  0.00    -0.479 OA
BRANCH   6  12
ATOM      7  C   UNL     1     -28.963 -13.328  17.749  0.00  0.00    +0.162 A 
ATOM      8  C   UNL     1     -29.174 -13.811  16.442  0.00  0.00    +0.049 A 
ATOM      9  C   UNL     1     -30.431 -14.287  16.061  0.00  0.00    +0.004 A 
ATOM     10  C   UNL     1     -31.486 -14.288  16.974  0.00  0.00    +0.004 A 
ATOM     11  C   UNL     1     -31.289 -13.811  18.272  0.00  0.00    +0.049 A 
ATOM     12  C   UNL     1     -30.027 -13.325  18.666  0.00  0.00    +0.163 A 
BRANCH   7  14
ATOM     13  C   UNL     1     -27.340 -11.472  18.179  0.00  0.00    +0.277 C 
ATOM     14  O   UNL     1     -27.716 -12.845  18.174  0.00  0.00    -0.491 OA
ENDBRANCH   7  14
ENDBRANCH   6  12
ENDBRANCH   5   6
ENDBRANCH   1   5
BRANCH   3  15
ATOM     15  C   UNL     1     -32.196  -9.456  18.232  0.00  0.00    +0.114 C 
BRANCH  15  16
ATOM     16  C   UNL     1     -32.444 -10.218  16.947  0.00  0.00    -0.027 A 
ATOM     17  C   UNL     1     -33.672 -10.870  16.722  0.00  0.00    +0.005 A 
ATOM     18  C   UNL     1     -33.895 -11.567  15.532  0.00  0.00    +0.000 A 
ATOM     19  C   UNL     1     -32.900 -11.620  14.554  0.00  0.00    +0.000 A 
ATOM     20  C   UNL     1     -31.681 -10.969  14.762  0.00  0.00    +0.000 A 
ATOM     21  C   UNL     1     -31.454 -10.265  15.949  0.00  0.00    +0.005 A 
ENDBRANCH  15  16
BRANCH  15  22
ATOM     22  C   UNL     1     -33.317  -8.428  18.466  0.00  0.00    +0.147 C 
BRANCH  22  23
ATOM     23  C   UNL     1     -33.926  -8.591  19.824  0.00  0.00    +0.307 C 
ATOM     24  O   UNL     1     -33.753  -7.706  20.704  0.00  0.00    -0.251 OA
BRANCH  23  25
ATOM     25  O   UNL     1     -34.651  -9.739  20.126  0.00  0.00    -0.481 OA
ATOM     26  H   UNL     1     -34.742 -10.490  19.450  0.00  0.00    +0.295 HD
ENDBRANCH  23  25
ENDBRANCH  22  23
ENDBRANCH  15  22
ENDBRANCH   3  15
TORSDOF 9
ENDMDL
