MODEL 1
REMARK VINA RESULT:    -4.770      0.000      0.000
REMARK INTER + INTRA:          -9.145
REMARK INTER:                  -6.862
REMARK INTRA:                  -2.283
REMARK UNBOUND:                -2.283
REMARK  Name = 
REMARK  10 active torsions:
REMARK  status: ('A' for Active; 'I' for Inactive)
REMARK    1  A    between atoms: C_1  and  O_2
REMARK    2  A    between atoms: O_2  and  C_3
REMARK    3  A    between atoms: C_6  and  C_7
REMARK    4  A    between atoms: C_7  and  O_9
REMARK    5  A    between atoms: C_10  and  O_12
REMARK    6  A    between atoms: O_12  and  C_13
REMARK    7  A    between atoms: C_13  and  C_14
REMARK    8  A    between atoms: N_16  and  C_17
REMARK    9  A    between atoms: C_17  and  C_18
REMARK   10  A    between atoms: C_17  and  C_19
REMARK                            x       y       z     vdW  Elec       q    Type
REMARK                         _______ _______ _______ _____ _____    ______ ____
ROOT
ATOM      1  O   UNL     1     -32.319 -11.822  15.776  0.00  0.00    -0.482 OA
ENDROOT
BRANCH   1   6
ATOM      2  C   UNL     1     -29.924 -13.995  13.912  0.00  0.00    +0.124 A 
ATOM      3  C   UNL     1     -29.514 -14.857  14.942  0.00  0.00    +0.046 A 
ATOM      4  C   UNL     1     -30.031 -14.714  16.230  0.00  0.00    +0.022 A 
ATOM      5  C   UNL     1     -30.973 -13.710  16.523  0.00  0.00    +0.101 A 
ATOM      6  C   UNL     1     -31.388 -12.834  15.491  0.00  0.00    +0.139 A 
ATOM      7  C   UNL     1     -30.855 -12.992  14.194  0.00  0.00    +0.092 A 
BRANCH   2   9
ATOM      8  C   UNL     1     -28.077 -14.381  12.272  0.00  0.00    +0.277 C 
ATOM      9  O   UNL     1     -29.434 -14.101  12.602  0.00  0.00    -0.495 OA
ENDBRANCH   2   9
BRANCH   5  10
ATOM     10  C   UNL     1     -31.506 -13.597  17.907  0.00  0.00    +0.340 C 
ATOM     11  O   UNL     1     -32.401 -12.749  18.174  0.00  0.00    -0.245 OA
BRANCH  10  12
ATOM     12  O   UNL     1     -31.032 -14.414  18.928  0.00  0.00    -0.477 OA
ATOM     13  H   UNL     1     -31.165 -15.417  18.898  0.00  0.00    +0.295 HD
ENDBRANCH  10  12
ENDBRANCH   5  10
ENDBRANCH   1   6
BRANCH   1  14
ATOM     14  C   UNL     1     -32.105 -10.429  15.560  0.00  0.00    +0.324 C 
BRANCH  14  15
ATOM     15  C   UNL     1     -31.041  -9.942  16.493  0.00  0.00    +0.251 C 
ATOM     16  O   UNL     1     -30.096  -9.242  16.035  0.00  0.00    -0.272 OA
ATOM     17  N   UNL     1     -31.099 -10.257  17.893  0.00  0.00    -0.306 N 
ATOM     18  H   UNL     1     -31.882 -10.861  18.232  0.00  0.00    +0.149 HD
BRANCH  17  19
ATOM     19  C   UNL     1     -30.090  -9.779  18.845  0.00  0.00    +0.100 C 
ATOM     20  C   UNL     1     -30.756  -9.000  19.986  0.00  0.00    +0.033 C 
BRANCH  19  21
ATOM     21  C   UNL     1     -29.273 -10.939  19.387  0.00  0.00    -0.027 A 
ATOM     22  C   UNL     1     -29.541 -11.478  20.661  0.00  0.00    +0.005 A 
ATOM     23  C   UNL     1     -28.784 -12.547  21.151  0.00  0.00    +0.000 A 
ATOM     24  C   UNL     1     -27.751 -13.085  20.379  0.00  0.00    +0.000 A 
ATOM     25  C   UNL     1     -27.473 -12.556  19.117  0.00  0.00    +0.000 A 
ATOM     26  C   UNL     1     -28.228 -11.488  18.621  0.00  0.00    +0.005 A 
ENDBRANCH  19  21
ENDBRANCH  17  19
ENDBRANCH  14  15
ENDBRANCH   1  14
TORSDOF 8
ENDMDL
MODEL 2
REMARK VINA RESULT:    -4.562      1.859      2.806
REMARK INTER + INTRA:          -8.845
REMARK INTER:                  -7.423
REMARK INTRA:                  -1.422
REMARK UNBOUND:                -2.283
REMARK  Name = 
REMARK  10 active torsions:
REMARK  status: ('A' for Active; 'I' for Inactive)
REMARK    1  A    between atoms: C_1  and  O_2
REMARK    2  A    between atoms: O_2  and  C_3
REMARK    3  A    between atoms: C_6  and  C_7
REMARK    4  A    between atoms: C_7  and  O_9
REMARK    5  A    between atoms: C_10  and  O_12
REMARK    6  A    between atoms: O_12  and  C_13
REMARK    7  A    between atoms: C_13  and  C_14
REMARK    8  A    between atoms: N_16  and  C_17
REMARK    9  A    between atoms: C_17  and  C_18
REMARK   10  A    between atoms: C_17  and  C_19
REMARK                            x       y       z     vdW  Elec       q    Type
REMARK                         _______ _______ _______ _____ _____    ______ ____
ROOT
ATOM      1  O   UNL     1     -31.055 -11.646  16.696  0.00  0.00    -0.482 OA
ENDROOT
BRANCH   1   6
ATOM      2  C   UNL     1     -31.590 -13.064  13.285  0.00  0.00    +0.124 A 
ATOM      3  C   UNL     1     -30.780 -14.210  13.360  0.00  0.00    +0.046 A 
ATOM      4  C   UNL     1     -30.075 -14.500  14.528  0.00  0.00    +0.022 A 
ATOM      5  C   UNL     1     -30.161 -13.657  15.652  0.00  0.00    +0.101 A 
ATOM      6  C   UNL     1     -30.972 -12.498  15.583  0.00  0.00    +0.139 A 
ATOM      7  C   UNL     1     -31.678 -12.219  14.394  0.00  0.00    +0.092 A 
BRANCH   2   9
ATOM      8  C   UNL     1     -33.736 -12.598  12.090  0.00  0.00    +0.277 C 
ATOM      9  O   UNL     1     -32.319 -12.732  12.134  0.00  0.00    -0.495 OA
ENDBRANCH   2   9
BRANCH   5  10
ATOM     10  C   UNL     1     -29.400 -14.007  16.881  0.00  0.00    +0.340 C 
ATOM     11  O   UNL     1     -28.244 -13.538  17.066  0.00  0.00    -0.245 OA
BRANCH  10  12
ATOM     12  O   UNL     1     -29.940 -14.855  17.843  0.00  0.00    -0.477 OA
ATOM     13  H   UNL     1     -29.348 -15.465  18.393  0.00  0.00    +0.295 HD
ENDBRANCH  10  12
ENDBRANCH   5  10
ENDBRANCH   1   6
BRANCH   1  14
ATOM     14  C   UNL     1     -30.279 -10.464  16.881  0.00  0.00    +0.324 C 
BRANCH  14  15
ATOM     15  C   UNL     1     -29.816 -10.395  18.303  0.00  0.00    +0.251 C 
ATOM     16  O   UNL     1     -29.766  -9.273  18.878  0.00  0.00    -0.272 OA
ATOM     17  N   UNL     1     -29.446 -11.589  19.008  0.00  0.00    -0.306 N 
ATOM     18  H   UNL     1     -29.476 -12.498  18.491  0.00  0.00    +0.149 HD
BRANCH  17  19
ATOM     19  C   UNL     1     -29.010 -11.568  20.409  0.00  0.00    +0.100 C 
ATOM     20  C   UNL     1     -30.215 -11.717  21.347  0.00  0.00    +0.033 C 
BRANCH  19  21
ATOM     21  C   UNL     1     -27.986 -12.659  20.669  0.00  0.00    -0.027 A 
ATOM     22  C   UNL     1     -26.786 -12.713  19.932  0.00  0.00    +0.005 A 
ATOM     23  C   UNL     1     -25.849 -13.721  20.179  0.00  0.00    +0.000 A 
ATOM     24  C   UNL     1     -26.100 -14.686  21.159  0.00  0.00    +0.000 A 
ATOM     25  C   UNL     1     -27.287 -14.645  21.892  0.00  0.00    +0.000 A 
ATOM     26  C   UNL     1     -28.228 -13.637  21.650  0.00  0.00    +0.005 A 
ENDBRANCH  19  21
ENDBRANCH  17  19
ENDBRANCH  14  15
ENDBRANCH   1  14
TORSDOF 8
ENDMDL
MODEL 3
REMARK VINA RESULT:    -4.440      2.080      6.559
REMARK INTER + INTRA:          -8.670
REMARK INTER:                  -6.649
REMARK INTRA:                  -2.021
REMARK UNBOUND:                -2.283
REMARK  Name = 
REMARK  10 active torsions:
REMARK  status: ('A' for Active; 'I' for Inactive)
REMARK    1  A    between atoms: C_1  and  O_2
REMARK    2  A    between atoms: O_2  and  C_3
REMARK    3  A    between atoms: C_6  and  C_7
REMARK    4  A    between atoms: C_7  and  O_9
REMARK    5  A    between atoms: C_10  and  O_12
REMARK    6  A    between atoms: O_12  and  C_13
REMARK    7  A    between atoms: C_13  and  C_14
REMARK    8  A    between atoms: N_16  and  C_17
REMARK    9  A    between atoms: C_17  and  C_18
REMARK   10  A    between atoms: C_17  and  C_19
REMARK                            x       y       z     vdW  Elec       q    Type
REMARK                         _______ _______ _______ _____ _____    ______ ____
ROOT
ATOM      1  O   UNL     1     -29.338 -10.161  17.680  0.00  0.00    -0.482 OA
ENDROOT
BRANCH   1   6
ATOM      2  C   UNL     1     -31.620  -8.526  20.139  0.00  0.00    +0.124 A 
ATOM      3  C   UNL     1     -32.795  -8.442  19.375  0.00  0.00    +0.046 A 
ATOM      4  C   UNL     1     -32.821  -8.926  18.066  0.00  0.00    +0.022 A 
ATOM      5  C   UNL     1     -31.676  -9.508  17.489  0.00  0.00    +0.101 A 
ATOM      6  C   UNL     1     -30.487  -9.591  18.252  0.00  0.00    +0.139 A 
ATOM      7  C   UNL     1     -30.478  -9.097  19.573  0.00  0.00    +0.092 A 
BRANCH   2   9
ATOM      8  C   UNL     1     -30.597  -7.098  21.920  0.00  0.00    +0.277 C 
ATOM      9  O   UNL     1     -31.546  -8.055  21.459  0.00  0.00    -0.495 OA
ENDBRANCH   2   9
BRANCH   5  10
ATOM     10  C   UNL     1     -31.749 -10.019  16.094  0.00  0.00    +0.340 C 
ATOM     11  O   UNL     1     -32.757  -9.768  15.378  0.00  0.00    -0.245 OA
BRANCH  10  12
ATOM     12  O   UNL     1     -30.718 -10.782  15.554  0.00  0.00    -0.477 OA
ATOM     13  H   UNL     1     -29.748 -10.535  15.711  0.00  0.00    +0.295 HD
ENDBRANCH  10  12
ENDBRANCH   5  10
ENDBRANCH   1   6
BRANCH   1  14
ATOM     14  C   UNL     1     -28.425 -11.019  18.361  0.00  0.00    +0.324 C 
BRANCH  14  15
ATOM     15  C   UNL     1     -28.650 -12.431  17.917  0.00  0.00    +0.251 C 
ATOM     16  O   UNL     1     -27.811 -13.317  18.240  0.00  0.00    -0.272 OA
ATOM     17  N   UNL     1     -29.809 -12.776  17.144  0.00  0.00    -0.306 N 
ATOM     18  H   UNL     1     -30.469 -12.011  16.874  0.00  0.00    +0.149 HD
BRANCH  17  19
ATOM     19  C   UNL     1     -30.080 -14.152  16.710  0.00  0.00    +0.100 C 
ATOM     20  C   UNL     1     -31.523 -14.546  17.048  0.00  0.00    +0.033 C 
BRANCH  19  21
ATOM     21  C   UNL     1     -29.810 -14.307  15.224  0.00  0.00    -0.027 A 
ATOM     22  C   UNL     1     -30.795 -13.974  14.272  0.00  0.00    +0.005 A 
ATOM     23  C   UNL     1     -30.537 -14.120  12.906  0.00  0.00    +0.000 A 
ATOM     24  C   UNL     1     -29.298 -14.602  12.475  0.00  0.00    +0.000 A 
ATOM     25  C   UNL     1     -28.316 -14.940  13.409  0.00  0.00    +0.000 A 
ATOM     26  C   UNL     1     -28.569 -14.794  14.777  0.00  0.00    +0.005 A 
ENDBRANCH  19  21
ENDBRANCH  17  19
ENDBRANCH  14  15
ENDBRANCH   1  14
TORSDOF 8
ENDMDL
MODEL 4
REMARK VINA RESULT:    -4.345      2.088      5.521
REMARK INTER + INTRA:          -8.533
REMARK INTER:                  -5.509
REMARK INTRA:                  -3.024
REMARK UNBOUND:                -2.283
REMARK  Name = 
REMARK  10 active torsions:
REMARK  status: ('A' for Active; 'I' for Inactive)
REMARK    1  A    between atoms: C_1  and  O_2
REMARK    2  A    between atoms: O_2  and  C_3
REMARK    3  A    between atoms: C_6  and  C_7
REMARK    4  A    between atoms: C_7  and  O_9
REMARK    5  A    between atoms: C_10  and  O_12
REMARK    6  A    between atoms: O_12  and  C_13
REMARK    7  A    between atoms: C_13  and  C_14
REMARK    8  A    between atoms: N_16  and  C_17
REMARK    9  A    between atoms: C_17  and  C_18
REMARK   10  A    between atoms: C_17  and  C_19
REMARK                            x       y       z     vdW  Elec       q    Type
REMARK                         _______ _______ _______ _____ _____    ______ ____
ROOT
ATOM      1  O   UNL     1     -30.879 -10.031  20.470  0.00  0.00    -0.482 OA
ENDROOT
BRANCH   1   6
ATOM      2  C   UNL     1     -28.312 -12.735  20.641  0.00  0.00    +0.124 A 
ATOM      3  C   UNL     1     -27.797 -12.676  19.336  0.00  0.00    +0.046 A 
ATOM      4  C   UNL     1     -28.299 -11.749  18.422  0.00  0.00    +0.022 A 
ATOM      5  C   UNL     1     -29.323 -10.855  18.787  0.00  0.00    +0.101 A 
ATOM      6  C   UNL     1     -29.850 -10.912  20.100  0.00  0.00    +0.139 A 
ATOM      7  C   UNL     1     -29.332 -11.855  21.012  0.00  0.00    +0.092 A 
BRANCH   2   9
ATOM      8  C   UNL     1     -26.647 -14.415  21.453  0.00  0.00    +0.277 C 
ATOM      9  O   UNL     1     -27.839 -13.648  21.596  0.00  0.00    -0.495 OA
ENDBRANCH   2   9
BRANCH   5  10
ATOM     10  C   UNL     1     -29.824  -9.877  17.785  0.00  0.00    +0.340 C 
ATOM     11  O   UNL     1     -29.239  -9.751  16.674  0.00  0.00    -0.245 OA
BRANCH  10  12
ATOM     12  O   UNL     1     -30.935  -9.082  18.049  0.00  0.00    -0.477 OA
ATOM     13  H   UNL     1     -30.832  -8.155  18.442  0.00  0.00    +0.295 HD
ENDBRANCH  10  12
ENDBRANCH   5  10
ENDBRANCH   1   6
BRANCH   1  14
ATOM     14  C   UNL     1     -32.201 -10.425  20.831  0.00  0.00    +0.324 C 
BRANCH  14  15
ATOM     15  C   UNL     1     -32.697 -11.444  19.854  0.00  0.00    +0.251 C 
ATOM     16  O   UNL     1     -33.010 -12.594  20.271  0.00  0.00    -0.272 OA
ATOM     17  N   UNL     1     -32.828 -11.117  18.462  0.00  0.00    -0.306 N 
ATOM     18  H   UNL     1     -32.535 -10.163  18.149  0.00  0.00    +0.149 HD
BRANCH  17  19
ATOM     19  C   UNL     1     -33.333 -12.078  17.475  0.00  0.00    +0.100 C 
ATOM     20  C   UNL     1     -34.236 -11.375  16.455  0.00  0.00    +0.033 C 
BRANCH  19  21
ATOM     21  C   UNL     1     -32.184 -12.787  16.781  0.00  0.00    -0.027 A 
ATOM     22  C   UNL     1     -31.518 -13.863  17.400  0.00  0.00    +0.005 A 
ATOM     23  C   UNL     1     -30.461 -14.509  16.752  0.00  0.00    +0.000 A 
ATOM     24  C   UNL     1     -30.055 -14.088  15.483  0.00  0.00    +0.000 A 
ATOM     25  C   UNL     1     -30.704 -13.019  14.861  0.00  0.00    +0.000 A 
ATOM     26  C   UNL     1     -31.763 -12.370  15.504  0.00  0.00    +0.005 A 
ENDBRANCH  19  21
ENDBRANCH  17  19
ENDBRANCH  14  15
ENDBRANCH   1  14
TORSDOF 8
ENDMDL
MODEL 5
REMARK VINA RESULT:    -4.227      2.107      4.318
REMARK INTER + INTRA:          -8.364
REMARK INTER:                  -5.523
REMARK INTRA:                  -2.841
REMARK UNBOUND:                -2.283
REMARK  Name = 
REMARK  10 active torsions:
REMARK  status: ('A' for Active; 'I' for Inactive)
REMARK    1  A    between atoms: C_1  and  O_2
REMARK    2  A    between atoms: O_2  and  C_3
REMARK    3  A    between atoms: C_6  and  C_7
REMARK    4  A    between atoms: C_7  and  O_9
REMARK    5  A    between atoms: C_10  and  O_12
REMARK    6  A    between atoms: O_12  and  C_13
REMARK    7  A    between atoms: C_13  and  C_14
REMARK    8  A    between atoms: N_16  and  C_17
REMARK    9  A    between atoms: C_17  and  C_18
REMARK   10  A    between atoms: C_17  and  C_19
REMARK                            x       y       z     vdW  Elec       q    Type
REMARK                         _______ _______ _______ _____ _____    ______ ____
ROOT
ATOM      1  O   UNL     1     -30.023 -12.390  15.754  0.00  0.00    -0.482 OA
ENDROOT
BRANCH   1   6
ATOM      2  C   UNL     1     -33.285 -11.468  14.191  0.00  0.00    +0.124 A 
ATOM      3  C   UNL     1     -33.584 -10.297  14.907  0.00  0.00    +0.046 A 
ATOM      4  C   UNL     1     -32.711  -9.827  15.888  0.00  0.00    +0.022 A 
ATOM      5  C   UNL     1     -31.515 -10.511  16.178  0.00  0.00    +0.101 A 
ATOM      6  C   UNL     1     -31.209 -11.695  15.464  0.00  0.00    +0.139 A 
ATOM      7  C   UNL     1     -32.103 -12.156  14.476  0.00  0.00    +0.092 A 
BRANCH   2   9
ATOM      8  C   UNL     1     -33.724 -12.897  12.187  0.00  0.00    +0.277 C 
ATOM      9  O   UNL     1     -34.131 -11.978  13.195  0.00  0.00    -0.495 OA
ENDBRANCH   2   9
BRANCH   5  10
ATOM     10  C   UNL     1     -30.607  -9.972  17.225  0.00  0.00    +0.340 C 
ATOM     11  O   UNL     1     -30.987  -9.026  17.968  0.00  0.00    -0.245 OA
BRANCH  10  12
ATOM     12  O   UNL     1     -29.329 -10.492  17.405  0.00  0.00    -0.477 OA
ATOM     13  H   UNL     1     -29.157 -11.238  18.067  0.00  0.00    +0.295 HD
ENDBRANCH  10  12
ENDBRANCH   5  10
ENDBRANCH   1   6
BRANCH   1  14
ATOM     14  C   UNL     1     -29.950 -13.768  16.112  0.00  0.00    +0.324 C 
BRANCH  14  15
ATOM     15  C   UNL     1     -30.397 -13.934  17.531  0.00  0.00    +0.251 C 
ATOM     16  O   UNL     1     -31.239 -14.832  17.810  0.00  0.00    -0.272 OA
ATOM     17  N   UNL     1     -29.866 -13.091  18.566  0.00  0.00    -0.306 N 
ATOM     18  H   UNL     1     -29.189 -12.341  18.294  0.00  0.00    +0.149 HD
BRANCH  17  19
ATOM     19  C   UNL     1     -30.258 -13.236  19.972  0.00  0.00    +0.100 C 
ATOM     20  C   UNL     1     -29.017 -13.374  20.863  0.00  0.00    +0.033 C 
BRANCH  19  21
ATOM     21  C   UNL     1     -31.112 -12.062  20.414  0.00  0.00    -0.027 A 
ATOM     22  C   UNL     1     -32.456 -11.951  20.004  0.00  0.00    +0.005 A 
ATOM     23  C   UNL     1     -33.235 -10.865  20.417  0.00  0.00    +0.000 A 
ATOM     24  C   UNL     1     -32.682  -9.879  21.239  0.00  0.00    +0.000 A 
ATOM     25  C   UNL     1     -31.351  -9.976  21.648  0.00  0.00    +0.000 A 
ATOM     26  C   UNL     1     -30.567 -11.061  21.239  0.00  0.00    +0.005 A 
ENDBRANCH  19  21
ENDBRANCH  17  19
ENDBRANCH  14  15
ENDBRANCH   1  14
TORSDOF 8
ENDMDL
MODEL 6
REMARK VINA RESULT:    -4.204      2.478      6.114
REMARK INTER + INTRA:          -8.331
REMARK INTER:                  -5.798
REMARK INTRA:                  -2.533
REMARK UNBOUND:                -2.283
REMARK  Name = 
REMARK  10 active torsions:
REMARK  status: ('A' for Active; 'I' for Inactive)
REMARK    1  A    between atoms: C_1  and  O_2
REMARK    2  A    between atoms: O_2  and  C_3
REMARK    3  A    between atoms: C_6  and  C_7
REMARK    4  A    between atoms: C_7  and  O_9
REMARK    5  A    between atoms: C_10  and  O_12
REMARK    6  A    between atoms: O_12  and  C_13
REMARK    7  A    between atoms: C_13  and  C_14
REMARK    8  A    between atoms: N_16  and  C_17
REMARK    9  A    between atoms: C_17  and  C_18
REMARK   10  A    between atoms: C_17  and  C_19
REMARK                            x       y       z     vdW  Elec       q    Type
REMARK                         _______ _______ _______ _____ _____    ______ ____
ROOT
ATOM      1  O   UNL     1     -32.690  -9.219  17.315  0.00  0.00    -0.482 OA
ENDROOT
BRANCH   1   6
ATOM      2  C   UNL     1     -32.599 -11.035  20.575  0.00  0.00    +0.124 A 
ATOM      3  C   UNL     1     -31.271 -11.492  20.571  0.00  0.00    +0.046 A 
ATOM      4  C   UNL     1     -30.426 -11.195  19.501  0.00  0.00    +0.022 A 
ATOM      5  C   UNL     1     -30.883 -10.432  18.410  0.00  0.00    +0.101 A 
ATOM      6  C   UNL     1     -32.222  -9.972  18.405  0.00  0.00    +0.139 A 
ATOM      7  C   UNL     1     -33.063 -10.281  19.494  0.00  0.00    +0.092 A 
BRANCH   2   9
ATOM      8  C   UNL     1     -34.519 -10.426  22.057  0.00  0.00    +0.277 C 
ATOM      9  O   UNL     1     -33.485 -11.307  21.628  0.00  0.00    -0.495 OA
ENDBRANCH   2   9
BRANCH   5  10
ATOM     10  C   UNL     1     -29.948 -10.130  17.294  0.00  0.00    +0.340 C 
ATOM     11  O   UNL     1     -28.701 -10.182  17.480  0.00  0.00    -0.245 OA
BRANCH  10  12
ATOM     12  O   UNL     1     -30.423  -9.784  16.032  0.00  0.00    -0.477 OA
ATOM     13  H   UNL     1     -30.151 -10.307  15.210  0.00  0.00    +0.295 HD
ENDBRANCH  10  12
ENDBRANCH   5  10
ENDBRANCH   1   6
BRANCH   1  14
ATOM     14  C   UNL     1     -33.954  -9.398  16.681  0.00  0.00    +0.324 C 
BRANCH  14  15
ATOM     15  C   UNL     1     -33.982 -10.731  16.001  0.00  0.00    +0.251 C 
ATOM     16  O   UNL     1     -34.987 -11.478  16.155  0.00  0.00    -0.272 OA
ATOM     17  N   UNL     1     -32.885 -11.151  15.175  0.00  0.00    -0.306 N 
ATOM     18  H   UNL     1     -32.058 -10.517  15.091  0.00  0.00    +0.149 HD
BRANCH  17  19
ATOM     19  C   UNL     1     -32.882 -12.439  14.472  0.00  0.00    +0.100 C 
ATOM     20  C   UNL     1     -33.038 -12.225  12.961  0.00  0.00    +0.033 C 
BRANCH  19  21
ATOM     21  C   UNL     1     -31.615 -13.215  14.780  0.00  0.00    -0.027 A 
ATOM     22  C   UNL     1     -30.768 -13.657  13.744  0.00  0.00    +0.005 A 
ATOM     23  C   UNL     1     -29.602 -14.371  14.038  0.00  0.00    +0.000 A 
ATOM     24  C   UNL     1     -29.271 -14.655  15.366  0.00  0.00    +0.000 A 
ATOM     25  C   UNL     1     -30.104 -14.226  16.401  0.00  0.00    +0.000 A 
ATOM     26  C   UNL     1     -31.271 -13.510  16.112  0.00  0.00    +0.005 A 
ENDBRANCH  19  21
ENDBRANCH  17  19
ENDBRANCH  14  15
ENDBRANCH   1  14
TORSDOF 8
ENDMDL
MODEL 7
REMARK VINA RESULT:    -4.142      2.514      6.206
REMARK INTER + INTRA:          -8.242
REMARK INTER:                  -7.128
REMARK INTRA:                  -1.114
REMARK UNBOUND:                -2.283
REMARK  Name = 
REMARK  10 active torsions:
REMARK  status: ('A' for Active; 'I' for Inactive)
REMARK    1  A    between atoms: C_1  and  O_2
REMARK    2  A    between atoms: O_2  and  C_3
REMARK    3  A    between atoms: C_6  and  C_7
REMARK    4  A    between atoms: C_7  and  O_9
REMARK    5  A    between atoms: C_10  and  O_12
REMARK    6  A    between atoms: O_12  and  C_13
REMARK    7  A    between atoms: C_13  and  C_14
REMARK    8  A    between atoms: N_16  and  C_17
REMARK    9  A    between atoms: C_17  and  C_18
REMARK   10  A    between atoms: C_17  and  C_19
REMARK                            x       y       z     vdW  Elec       q    Type
REMARK                         _______ _______ _______ _____ _____    ______ ____
ROOT
ATOM      1  O   UNL     1     -29.475 -10.127  18.715  0.00  0.00    -0.482 OA
ENDROOT
BRANCH   1   6
ATOM      2  C   UNL     1     -27.479 -13.013  19.987  0.00  0.00    +0.124 A 
ATOM      3  C   UNL     1     -28.184 -13.306  21.166  0.00  0.00    +0.046 A 
ATOM      4  C   UNL     1     -29.304 -12.554  21.523  0.00  0.00    +0.022 A 
ATOM      5  C   UNL     1     -29.751 -11.494  20.712  0.00  0.00    +0.101 A 
ATOM      6  C   UNL     1     -29.043 -11.190  19.524  0.00  0.00    +0.139 A 
ATOM      7  C   UNL     1     -27.912 -11.959  19.178  0.00  0.00    +0.092 A 
BRANCH   2   9
ATOM      8  C   UNL     1     -25.306 -14.156  20.463  0.00  0.00    +0.277 C 
ATOM      9  O   UNL     1     -26.349 -13.741  19.586  0.00  0.00    -0.495 OA
ENDBRANCH   2   9
BRANCH   5  10
ATOM     10  C   UNL     1     -30.955 -10.723  21.124  0.00  0.00    +0.340 C 
ATOM     11  O   UNL     1     -31.794 -11.234  21.916  0.00  0.00    -0.245 OA
BRANCH  10  12
ATOM     12  O   UNL     1     -31.181  -9.436  20.648  0.00  0.00    -0.477 OA
ATOM     13  H   UNL     1     -30.964  -8.624  21.213  0.00  0.00    +0.295 HD
ENDBRANCH  10  12
ENDBRANCH   5  10
ENDBRANCH   1   6
BRANCH   1  14
ATOM     14  C   UNL     1     -29.621 -10.186  17.298  0.00  0.00    +0.324 C 
BRANCH  14  15
ATOM     15  C   UNL     1     -31.007 -10.639  16.962  0.00  0.00    +0.251 C 
ATOM     16  O   UNL     1     -31.674 -11.270  17.828  0.00  0.00    -0.272 OA
ATOM     17  N   UNL     1     -31.577 -10.351  15.675  0.00  0.00    -0.306 N 
ATOM     18  H   UNL     1     -30.985  -9.849  14.974  0.00  0.00    +0.149 HD
BRANCH  17  19
ATOM     19  C   UNL     1     -32.940 -10.756  15.314  0.00  0.00    +0.100 C 
ATOM     20  C   UNL     1     -33.801  -9.524  15.008  0.00  0.00    +0.033 C 
BRANCH  19  21
ATOM     21  C   UNL     1     -32.921 -11.709  14.133  0.00  0.00    -0.027 A 
ATOM     22  C   UNL     1     -31.819 -12.557  13.906  0.00  0.00    +0.005 A 
ATOM     23  C   UNL     1     -31.811 -13.432  12.815  0.00  0.00    +0.000 A 
ATOM     24  C   UNL     1     -32.899 -13.468  11.939  0.00  0.00    +0.000 A 
ATOM     25  C   UNL     1     -33.995 -12.629  12.151  0.00  0.00    +0.000 A 
ATOM     26  C   UNL     1     -34.009 -11.753  13.241  0.00  0.00    +0.005 A 
ENDBRANCH  19  21
ENDBRANCH  17  19
ENDBRANCH  14  15
ENDBRANCH   1  14
TORSDOF 8
ENDMDL
MODEL 8
REMARK VINA RESULT:    -4.111      2.351      5.719
REMARK INTER + INTRA:          -8.197
REMARK INTER:                  -7.116
REMARK INTRA:                  -1.081
REMARK UNBOUND:                -2.283
REMARK  Name = 
REMARK  10 active torsions:
REMARK  status: ('A' for Active; 'I' for Inactive)
REMARK    1  A    between atoms: C_1  and  O_2
REMARK    2  A    between atoms: O_2  and  C_3
REMARK    3  A    between atoms: C_6  and  C_7
REMARK    4  A    between atoms: C_7  and  O_9
REMARK    5  A    between atoms: C_10  and  O_12
REMARK    6  A    between atoms: O_12  and  C_13
REMARK    7  A    between atoms: C_13  and  C_14
REMARK    8  A    between atoms: N_16  and  C_17
REMARK    9  A    between atoms: C_17  and  C_18
REMARK   10  A    between atoms: C_17  and  C_19
REMARK                            x       y       z     vdW  Elec       q    Type
REMARK                         _______ _______ _______ _____ _____    ______ ____
ROOT
ATOM      1  O   UNL     1     -32.482  -9.210  15.961  0.00  0.00    -0.482 OA
ENDROOT
BRANCH   1   6
ATOM      2  C   UNL     1     -29.531 -10.370  17.929  0.00  0.00    +0.124 A 
ATOM      3  C   UNL     1     -29.891  -9.920  19.210  0.00  0.00    +0.046 A 
ATOM      4  C   UNL     1     -31.097  -9.247  19.408  0.00  0.00    +0.022 A 
ATOM      5  C   UNL     1     -31.975  -9.008  18.334  0.00  0.00    +0.101 A 
ATOM      6  C   UNL     1     -31.617  -9.454  17.039  0.00  0.00    +0.139 A 
ATOM      7  C   UNL     1     -30.394 -10.133  16.857  0.00  0.00    +0.092 A 
BRANCH   2   9
ATOM      8  C   UNL     1     -27.639 -11.840  18.647  0.00  0.00    +0.277 C 
ATOM      9  O   UNL     1     -28.330 -11.053  17.682  0.00  0.00    -0.495 OA
ENDBRANCH   2   9
BRANCH   5  10
ATOM     10  C   UNL     1     -33.255  -8.294  18.590  0.00  0.00    +0.340 C 
ATOM     11  O   UNL     1     -34.065  -8.733  19.450  0.00  0.00    -0.245 OA
BRANCH  10  12
ATOM     12  O   UNL     1     -33.585  -7.138  17.888  0.00  0.00    -0.477 OA
ATOM     13  H   UNL     1     -32.936  -6.364  17.823  0.00  0.00    +0.295 HD
ENDBRANCH  10  12
ENDBRANCH   5  10
ENDBRANCH   1   6
BRANCH   1  14
ATOM     14  C   UNL     1     -33.784  -9.772  15.814  0.00  0.00    +0.324 C 
BRANCH  14  15
ATOM     15  C   UNL     1     -33.667 -11.146  15.233  0.00  0.00    +0.251 C 
ATOM     16  O   UNL     1     -34.480 -12.039  15.600  0.00  0.00    -0.272 OA
ATOM     17  N   UNL     1     -32.652 -11.443  14.262  0.00  0.00    -0.306 N 
ATOM     18  H   UNL     1     -31.981 -10.685  14.002  0.00  0.00    +0.149 HD
BRANCH  17  19
ATOM     19  C   UNL     1     -32.518 -12.770  13.650  0.00  0.00    +0.100 C 
ATOM     20  C   UNL     1     -32.562 -12.662  12.121  0.00  0.00    +0.033 C 
BRANCH  19  21
ATOM     21  C   UNL     1     -31.237 -13.444  14.108  0.00  0.00    -0.027 A 
ATOM     22  C   UNL     1     -30.330 -13.982  13.173  0.00  0.00    +0.005 A 
ATOM     23  C   UNL     1     -29.152 -14.601  13.605  0.00  0.00    +0.000 A 
ATOM     24  C   UNL     1     -28.870 -14.693  14.970  0.00  0.00    +0.000 A 
ATOM     25  C   UNL     1     -29.764 -14.168  15.906  0.00  0.00    +0.000 A 
ATOM     26  C   UNL     1     -30.942 -13.547  15.480  0.00  0.00    +0.005 A 
ENDBRANCH  19  21
ENDBRANCH  17  19
ENDBRANCH  14  15
ENDBRANCH   1  14
TORSDOF 8
ENDMDL
MODEL 9
REMARK VINA RESULT:    -4.085      2.737      5.880
REMARK INTER + INTRA:          -8.160
REMARK INTER:                  -5.373
REMARK INTRA:                  -2.787
REMARK UNBOUND:                -2.283
REMARK  Name = 
REMARK  10 active torsions:
REMARK  status: ('A' for Active; 'I' for Inactive)
REMARK    1  A    between atoms: C_1  and  O_2
REMARK    2  A    between atoms: O_2  and  C_3
REMARK    3  A    between atoms: C_6  and  C_7
REMARK    4  A    between atoms: C_7  and  O_9
REMARK    5  A    between atoms: C_10  and  O_12
REMARK    6  A    between atoms: O_12  and  C_13
REMARK    7  A    between atoms: C_13  and  C_14
REMARK    8  A    between atoms: N_16  and  C_17
REMARK    9  A    between atoms: C_17  and  C_18
REMARK   10  A    between atoms: C_17  and  C_19
REMARK                            x       y       z     vdW  Elec       q    Type
REMARK                         _______ _______ _______ _____ _____    ______ ____
ROOT
ATOM      1  O   UNL     1     -29.906  -9.050  19.161  0.00  0.00    -0.482 OA
ENDROOT
BRANCH   1   6
ATOM      2  C   UNL     1     -29.220 -12.561  20.227  0.00  0.00    +0.124 A 
ATOM      3  C   UNL     1     -29.475 -13.242  19.025  0.00  0.00    +0.046 A 
ATOM      4  C   UNL     1     -29.865 -12.539  17.885  0.00  0.00    +0.022 A 
ATOM      5  C   UNL     1     -30.007 -11.139  17.913  0.00  0.00    +0.101 A 
ATOM      6  C   UNL     1     -29.756 -10.446  19.122  0.00  0.00    +0.139 A 
ATOM      7  C   UNL     1     -29.363 -11.171  20.265  0.00  0.00    +0.092 A 
BRANCH   2   9
ATOM      8  C   UNL     1     -27.731 -14.134  21.477  0.00  0.00    +0.277 C 
ATOM      9  O   UNL     1     -28.824 -13.224  21.398  0.00  0.00    -0.495 OA
ENDBRANCH   2   9
BRANCH   5  10
ATOM     10  C   UNL     1     -30.416 -10.427  16.673  0.00  0.00    +0.340 C 
ATOM     11  O   UNL     1     -30.731 -11.081  15.641  0.00  0.00    -0.245 OA
BRANCH  10  12
ATOM     12  O   UNL     1     -30.456  -9.037  16.623  0.00  0.00    -0.477 OA
ATOM     13  H   UNL     1     -30.829  -8.497  17.393  0.00  0.00    +0.295 HD
ENDBRANCH  10  12
ENDBRANCH   5  10
ENDBRANCH   1   6
BRANCH   1  14
ATOM     14  C   UNL     1     -30.801  -8.348  20.021  0.00  0.00    +0.324 C 
BRANCH  14  15
ATOM     15  C   UNL     1     -32.210  -8.639  19.611  0.00  0.00    +0.251 C 
ATOM     16  O   UNL     1     -32.970  -9.251  20.412  0.00  0.00    -0.272 OA
ATOM     17  N   UNL     1     -32.698  -8.218  18.327  0.00  0.00    -0.306 N 
ATOM     18  H   UNL     1     -32.032  -7.736  17.680  0.00  0.00    +0.149 HD
BRANCH  17  19
ATOM     19  C   UNL     1     -34.079  -8.461  17.895  0.00  0.00    +0.100 C 
ATOM     20  C   UNL     1     -34.737  -7.152  17.443  0.00  0.00    +0.033 C 
BRANCH  19  21
ATOM     21  C   UNL     1     -34.119  -9.497  16.787  0.00  0.00    -0.027 A 
ATOM     22  C   UNL     1     -34.188 -10.873  17.085  0.00  0.00    +0.005 A 
ATOM     23  C   UNL     1     -34.225 -11.819  16.056  0.00  0.00    +0.000 A 
ATOM     24  C   UNL     1     -34.189 -11.406  14.722  0.00  0.00    +0.000 A 
ATOM     25  C   UNL     1     -34.116 -10.045  14.414  0.00  0.00    +0.000 A 
ATOM     26  C   UNL     1     -34.081  -9.094  15.439  0.00  0.00    +0.005 A 
ENDBRANCH  19  21
ENDBRANCH  17  19
ENDBRANCH  14  15
ENDBRANCH   1  14
TORSDOF 8
ENDMDL
