MODEL 1
REMARK VINA RESULT:    -3.815      0.000      0.000
REMARK INTER + INTRA:          -5.294
REMARK INTER:                  -4.707
REMARK INTRA:                  -0.587
REMARK UNBOUND:                -0.587
REMARK  Name = 
REMARK  6 active torsions:
REMARK  status: ('A' for Active; 'I' for Inactive)
REMARK    1  A    between atoms: C_1  and  C_2
REMARK    2  A    between atoms: C_2  and  C_3
REMARK    3  A    between atoms: C_3  and  C_4
REMARK    4  A    between atoms: C_3  and  N_6
REMARK    5  A    between atoms: C_4  and  C_5
REMARK    6  A    between atoms: C_10  and  N_14
REMARK                            x       y       z     vdW  Elec       q    Type
REMARK                         _______ _______ _______ _____ _____    ______ ____
ROOT
ATOM      1  N   UNL     1     -31.228 -13.057  20.259  0.00  0.00    -0.311 N 
ATOM      2  C   UNL     1     -29.795 -13.076  20.224  0.00  0.00    +0.217 A 
ATOM      3  N   UNL     1     -29.110 -12.221  19.421  0.00  0.00    -0.221 NA
ATOM      4  C   UNL     1     -27.754 -12.230  19.380  0.00  0.00    +0.150 A 
ATOM      5  C   UNL     1     -27.028 -13.121  20.182  0.00  0.00    +0.184 A 
ATOM      6  C   UNL     1     -27.756 -14.021  20.990  0.00  0.00    +0.152 A 
ATOM      7  N   UNL     1     -27.110 -15.034  21.767  0.00  0.00    -0.341 N 
ATOM      8  N   UNL     1     -29.115 -13.966  20.992  0.00  0.00    -0.198 NA
ATOM      9  H   UNL     1     -31.709 -13.720  20.909  0.00  0.00    +0.149 HD
ATOM     10  H   UNL     1     -27.674 -15.630  22.411  0.00  0.00    +0.144 HD
ATOM     11  H   UNL     1     -26.107 -15.285  21.628  0.00  0.00    +0.144 HD
ENDROOT
BRANCH   5  12
ATOM     12  N   UNL     1     -25.592 -13.074  20.178  0.00  0.00    +0.061 N 
ATOM     13  O   UNL     1     -24.938 -12.142  19.406  0.00  0.00    -0.126 OA
ATOM     14  O   UNL     1     -24.938 -13.719  21.024  0.00  0.00    -0.126 OA
ENDBRANCH   5  12
BRANCH   1  15
ATOM     15  C   UNL     1     -32.023 -12.125  19.450  0.00  0.00    +0.073 C 
BRANCH  15  17
ATOM     16  C   UNL     1     -33.273 -11.891  17.229  0.00  0.00    +0.006 C 
ATOM     17  C   UNL     1     -32.453 -12.816  18.128  0.00  0.00    +0.019 C 
ENDBRANCH  15  17
BRANCH  15  18
ATOM     18  C   UNL     1     -33.236 -11.636  20.276  0.00  0.00    +0.019 C 
ATOM     19  C   UNL     1     -32.882 -10.525  21.264  0.00  0.00    +0.006 C 
ENDBRANCH  15  18
ENDBRANCH   1  15
TORSDOF 4
ENDMDL
MODEL 2
REMARK VINA RESULT:    -3.721      2.115      2.295
REMARK INTER + INTRA:          -5.178
REMARK INTER:                  -4.506
REMARK INTRA:                  -0.672
REMARK UNBOUND:                -0.587
REMARK  Name = 
REMARK  6 active torsions:
REMARK  status: ('A' for Active; 'I' for Inactive)
REMARK    1  A    between atoms: C_1  and  C_2
REMARK    2  A    between atoms: C_2  and  C_3
REMARK    3  A    between atoms: C_3  and  C_4
REMARK    4  A    between atoms: C_3  and  N_6
REMARK    5  A    between atoms: C_4  and  C_5
REMARK    6  A    between atoms: C_10  and  N_14
REMARK                            x       y       z     vdW  Elec       q    Type
REMARK                         _______ _______ _______ _____ _____    ______ ____
ROOT
ATOM      1  N   UNL     1     -30.770 -10.582  19.711  0.00  0.00    -0.311 N 
ATOM      2  C   UNL     1     -29.593 -11.396  19.779  0.00  0.00    +0.217 A 
ATOM      3  N   UNL     1     -28.504 -11.106  19.020  0.00  0.00    -0.221 NA
ATOM      4  C   UNL     1     -27.385 -11.870  19.077  0.00  0.00    +0.150 A 
ATOM      5  C   UNL     1     -27.325 -12.976  19.936  0.00  0.00    +0.184 A 
ATOM      6  C   UNL     1     -28.475 -13.279  20.697  0.00  0.00    +0.152 A 
ATOM      7  N   UNL     1     -28.549 -14.442  21.527  0.00  0.00    -0.341 N 
ATOM      8  N   UNL     1     -29.570 -12.477  20.601  0.00  0.00    -0.198 NA
ATOM      9  H   UNL     1     -31.575 -10.833  20.330  0.00  0.00    +0.149 HD
ATOM     10  H   UNL     1     -29.384 -14.593  22.134  0.00  0.00    +0.144 HD
ATOM     11  H   UNL     1     -27.852 -15.216  21.463  0.00  0.00    +0.144 HD
ENDROOT
BRANCH   5  12
ATOM     12  N   UNL     1     -26.111 -13.736  20.035  0.00  0.00    +0.061 N 
ATOM     13  O   UNL     1     -24.938 -13.111  20.391  0.00  0.00    -0.126 OA
ATOM     14  O   UNL     1     -26.144 -14.984  20.013  0.00  0.00    -0.126 OA
ENDBRANCH   5  12
BRANCH   1  15
ATOM     15  C   UNL     1     -30.863  -9.403  18.840  0.00  0.00    +0.073 C 
BRANCH  15  17
ATOM     16  C   UNL     1     -30.615  -9.861  16.333  0.00  0.00    +0.006 C 
ATOM     17  C   UNL     1     -31.580  -9.788  17.516  0.00  0.00    +0.019 C 
ENDBRANCH  15  17
BRANCH  15  18
ATOM     18  C   UNL     1     -31.594  -8.266  19.591  0.00  0.00    +0.019 C 
ATOM     19  C   UNL     1     -30.736  -7.614  20.674  0.00  0.00    +0.006 C 
ENDBRANCH  15  18
ENDBRANCH   1  15
TORSDOF 4
ENDMDL
MODEL 3
REMARK VINA RESULT:    -3.628      3.546      4.744
REMARK INTER + INTRA:          -5.063
REMARK INTER:                  -4.446
REMARK INTRA:                  -0.617
REMARK UNBOUND:                -0.587
REMARK  Name = 
REMARK  6 active torsions:
REMARK  status: ('A' for Active; 'I' for Inactive)
REMARK    1  A    between atoms: C_1  and  C_2
REMARK    2  A    between atoms: C_2  and  C_3
REMARK    3  A    between atoms: C_3  and  C_4
REMARK    4  A    between atoms: C_3  and  N_6
REMARK    5  A    between atoms: C_4  and  C_5
REMARK    6  A    between atoms: C_10  and  N_14
REMARK                            x       y       z     vdW  Elec       q    Type
REMARK                         _______ _______ _______ _____ _____    ______ ____
ROOT
ATOM      1  N   UNL     1     -31.710 -12.933  14.881  0.00  0.00    -0.311 N 
ATOM      2  C   UNL     1     -30.920 -12.497  15.994  0.00  0.00    +0.217 A 
ATOM      3  N   UNL     1     -30.640 -11.179  16.172  0.00  0.00    -0.221 NA
ATOM      4  C   UNL     1     -29.894 -10.755  17.223  0.00  0.00    +0.150 A 
ATOM      5  C   UNL     1     -29.404 -11.675  18.160  0.00  0.00    +0.184 A 
ATOM      6  C   UNL     1     -29.681 -13.043  17.945  0.00  0.00    +0.152 A 
ATOM      7  N   UNL     1     -29.143 -14.066  18.788  0.00  0.00    -0.341 N 
ATOM      8  N   UNL     1     -30.436 -13.410  16.875  0.00  0.00    -0.198 NA
ATOM      9  H   UNL     1     -31.916 -13.955  14.798  0.00  0.00    +0.149 HD
ATOM     10  H   UNL     1     -29.432 -15.059  18.645  0.00  0.00    +0.144 HD
ATOM     11  H   UNL     1     -28.376 -13.878  19.468  0.00  0.00    +0.144 HD
ENDROOT
BRANCH   5  12
ATOM     12  N   UNL     1     -28.673 -11.205  19.303  0.00  0.00    +0.061 N 
ATOM     13  O   UNL     1     -29.312 -10.460  20.267  0.00  0.00    -0.126 OA
ATOM     14  O   UNL     1     -27.527 -11.641  19.542  0.00  0.00    -0.126 OA
ENDBRANCH   5  12
BRANCH   1  15
ATOM     15  C   UNL     1     -32.258 -11.998  13.890  0.00  0.00    +0.073 C 
BRANCH  15  17
ATOM     16  C   UNL     1     -33.349 -13.245  11.938  0.00  0.00    +0.006 C 
ATOM     17  C   UNL     1     -32.075 -12.583  12.462  0.00  0.00    +0.019 C 
ENDBRANCH  15  17
BRANCH  15  18
ATOM     18  C   UNL     1     -33.742 -11.714  14.219  0.00  0.00    +0.019 C 
ATOM     19  C   UNL     1     -34.029 -10.235  14.473  0.00  0.00    +0.006 C 
ENDBRANCH  15  18
ENDBRANCH   1  15
TORSDOF 4
ENDMDL
MODEL 4
REMARK VINA RESULT:    -3.620      2.087      2.557
REMARK INTER + INTRA:          -5.053
REMARK INTER:                  -4.387
REMARK INTRA:                  -0.666
REMARK UNBOUND:                -0.587
REMARK  Name = 
REMARK  6 active torsions:
REMARK  status: ('A' for Active; 'I' for Inactive)
REMARK    1  A    between atoms: C_1  and  C_2
REMARK    2  A    between atoms: C_2  and  C_3
REMARK    3  A    between atoms: C_3  and  C_4
REMARK    4  A    between atoms: C_3  and  N_6
REMARK    5  A    between atoms: C_4  and  C_5
REMARK    6  A    between atoms: C_10  and  N_14
REMARK                            x       y       z     vdW  Elec       q    Type
REMARK                         _______ _______ _______ _____ _____    ______ ____
ROOT
ATOM      1  N   UNL     1     -30.637 -11.823  17.704  0.00  0.00    -0.311 N 
ATOM      2  C   UNL     1     -29.459 -12.212  18.423  0.00  0.00    +0.217 A 
ATOM      3  N   UNL     1     -28.236 -11.754  18.049  0.00  0.00    -0.221 NA
ATOM      4  C   UNL     1     -27.115 -12.116  18.722  0.00  0.00    +0.150 A 
ATOM      5  C   UNL     1     -27.200 -12.966  19.832  0.00  0.00    +0.184 A 
ATOM      6  C   UNL     1     -28.475 -13.455  20.190  0.00  0.00    +0.152 A 
ATOM      7  N   UNL     1     -28.653 -14.404  21.245  0.00  0.00    -0.341 N 
ATOM      8  N   UNL     1     -29.565 -13.057  19.481  0.00  0.00    -0.198 NA
ATOM      9  H   UNL     1     -31.558 -12.185  18.043  0.00  0.00    +0.149 HD
ATOM     10  H   UNL     1     -29.617 -14.684  21.533  0.00  0.00    +0.144 HD
ATOM     11  H   UNL     1     -27.854 -14.926  21.664  0.00  0.00    +0.144 HD
ENDROOT
BRANCH   5  12
ATOM     12  N   UNL     1     -26.013 -13.287  20.576  0.00  0.00    +0.061 N 
ATOM     13  O   UNL     1     -26.102 -13.577  21.918  0.00  0.00    -0.126 OA
ATOM     14  O   UNL     1     -24.939 -13.516  19.981  0.00  0.00    -0.126 OA
ENDBRANCH   5  12
BRANCH   1  15
ATOM     15  C   UNL     1     -30.591 -10.918  16.549  0.00  0.00    +0.073 C 
BRANCH  15  17
ATOM     16  C   UNL     1     -31.139 -12.880  14.998  0.00  0.00    +0.006 C 
ATOM     17  C   UNL     1     -31.515 -11.460  15.424  0.00  0.00    +0.019 C 
ENDBRANCH  15  17
BRANCH  15  18
ATOM     18  C   UNL     1     -30.992  -9.493  16.998  0.00  0.00    +0.019 C 
ATOM     19  C   UNL     1     -32.459  -9.383  17.411  0.00  0.00    +0.006 C 
ENDBRANCH  15  18
ENDBRANCH   1  15
TORSDOF 4
ENDMDL
MODEL 5
REMARK VINA RESULT:    -3.554      4.023      5.416
REMARK INTER + INTRA:          -4.972
REMARK INTER:                  -4.315
REMARK INTRA:                  -0.657
REMARK UNBOUND:                -0.587
REMARK  Name = 
REMARK  6 active torsions:
REMARK  status: ('A' for Active; 'I' for Inactive)
REMARK    1  A    between atoms: C_1  and  C_2
REMARK    2  A    between atoms: C_2  and  C_3
REMARK    3  A    between atoms: C_3  and  C_4
REMARK    4  A    between atoms: C_3  and  N_6
REMARK    5  A    between atoms: C_4  and  C_5
REMARK    6  A    between atoms: C_10  and  N_14
REMARK                            x       y       z     vdW  Elec       q    Type
REMARK                         _______ _______ _______ _____ _____    ______ ____
ROOT
ATOM      1  N   UNL     1     -31.455 -13.823  15.009  0.00  0.00    -0.311 N 
ATOM      2  C   UNL     1     -31.005 -13.182  16.209  0.00  0.00    +0.217 A 
ATOM      3  N   UNL     1     -30.426 -11.954  16.164  0.00  0.00    -0.221 NA
ATOM      4  C   UNL     1     -29.996 -11.339  17.294  0.00  0.00    +0.150 A 
ATOM      5  C   UNL     1     -30.154 -11.958  18.541  0.00  0.00    +0.184 A 
ATOM      6  C   UNL     1     -30.732 -13.246  18.567  0.00  0.00    +0.152 A 
ATOM      7  N   UNL     1     -30.845 -14.001  19.777  0.00  0.00    -0.341 N 
ATOM      8  N   UNL     1     -31.147 -13.815  17.403  0.00  0.00    -0.198 NA
ATOM      9  H   UNL     1     -31.914 -14.759  15.096  0.00  0.00    +0.149 HD
ATOM     10  H   UNL     1     -31.348 -14.916  19.770  0.00  0.00    +0.144 HD
ATOM     11  H   UNL     1     -30.339 -13.734  20.648  0.00  0.00    +0.144 HD
ENDROOT
BRANCH   5  12
ATOM     12  N   UNL     1     -29.755 -11.267  19.736  0.00  0.00    +0.061 N 
ATOM     13  O   UNL     1     -29.305 -11.980  20.823  0.00  0.00    -0.126 OA
ATOM     14  O   UNL     1     -29.609 -10.027  19.727  0.00  0.00    -0.126 OA
ENDBRANCH   5  12
BRANCH   1  15
ATOM     15  C   UNL     1     -31.327 -13.198  13.686  0.00  0.00    +0.073 C 
BRANCH  15  17
ATOM     16  C   UNL     1     -29.244 -14.466  12.909  0.00  0.00    +0.006 C 
ATOM     17  C   UNL     1     -30.735 -14.222  12.679  0.00  0.00    +0.019 C 
ENDBRANCH  15  17
BRANCH  15  18
ATOM     18  C   UNL     1     -32.707 -12.664  13.235  0.00  0.00    +0.019 C 
ATOM     19  C   UNL     1     -33.202 -13.300  11.938  0.00  0.00    +0.006 C 
ENDBRANCH  15  18
ENDBRANCH   1  15
TORSDOF 4
ENDMDL
MODEL 6
REMARK VINA RESULT:    -3.542      3.938      5.177
REMARK INTER + INTRA:          -4.957
REMARK INTER:                  -4.424
REMARK INTRA:                  -0.533
REMARK UNBOUND:                -0.587
REMARK  Name = 
REMARK  6 active torsions:
REMARK  status: ('A' for Active; 'I' for Inactive)
REMARK    1  A    between atoms: C_1  and  C_2
REMARK    2  A    between atoms: C_2  and  C_3
REMARK    3  A    between atoms: C_3  and  C_4
REMARK    4  A    between atoms: C_3  and  N_6
REMARK    5  A    between atoms: C_4  and  C_5
REMARK    6  A    between atoms: C_10  and  N_14
REMARK                            x       y       z     vdW  Elec       q    Type
REMARK                         _______ _______ _______ _____ _____    ______ ____
ROOT
ATOM      1  N   UNL     1     -29.222 -13.920  15.328  0.00  0.00    -0.311 N 
ATOM      2  C   UNL     1     -29.355 -13.657  16.731  0.00  0.00    +0.217 A 
ATOM      3  N   UNL     1     -30.551 -13.817  17.356  0.00  0.00    -0.221 NA
ATOM      4  C   UNL     1     -30.687 -13.571  18.683  0.00  0.00    +0.150 A 
ATOM      5  C   UNL     1     -29.586 -13.154  19.443  0.00  0.00    +0.184 A 
ATOM      6  C   UNL     1     -28.358 -12.966  18.772  0.00  0.00    +0.152 A 
ATOM      7  N   UNL     1     -27.203 -12.449  19.439  0.00  0.00    -0.341 N 
ATOM      8  N   UNL     1     -28.278 -13.230  17.440  0.00  0.00    -0.198 NA
ATOM      9  H   UNL     1     -28.277 -13.803  14.896  0.00  0.00    +0.149 HD
ATOM     10  H   UNL     1     -26.292 -12.397  18.930  0.00  0.00    +0.144 HD
ATOM     11  H   UNL     1     -27.256 -12.006  20.381  0.00  0.00    +0.144 HD
ENDROOT
BRANCH   5  12
ATOM     12  N   UNL     1     -29.730 -12.962  20.859  0.00  0.00    +0.061 N 
ATOM     13  O   UNL     1     -28.703 -13.311  21.707  0.00  0.00    -0.126 OA
ATOM     14  O   UNL     1     -30.680 -12.289  21.311  0.00  0.00    -0.126 OA
ENDBRANCH   5  12
BRANCH   1  15
ATOM     15  C   UNL     1     -30.347 -14.378  14.503  0.00  0.00    +0.073 C 
BRANCH  15  17
ATOM     16  C   UNL     1     -31.773 -13.187  12.742  0.00  0.00    +0.006 C 
ATOM     17  C   UNL     1     -31.287 -13.181  14.192  0.00  0.00    +0.019 C 
ENDBRANCH  15  17
BRANCH  15  18
ATOM     18  C   UNL     1     -29.803 -15.044  13.218  0.00  0.00    +0.019 C 
ATOM     19  C   UNL     1     -28.276 -15.062  13.151  0.00  0.00    +0.006 C 
ENDBRANCH  15  18
ENDBRANCH   1  15
TORSDOF 4
ENDMDL
MODEL 7
REMARK VINA RESULT:    -3.515      4.936      6.825
REMARK INTER + INTRA:          -4.924
REMARK INTER:                  -4.630
REMARK INTRA:                  -0.294
REMARK UNBOUND:                -0.587
REMARK  Name = 
REMARK  6 active torsions:
REMARK  status: ('A' for Active; 'I' for Inactive)
REMARK    1  A    between atoms: C_1  and  C_2
REMARK    2  A    between atoms: C_2  and  C_3
REMARK    3  A    between atoms: C_3  and  C_4
REMARK    4  A    between atoms: C_3  and  N_6
REMARK    5  A    between atoms: C_4  and  C_5
REMARK    6  A    between atoms: C_10  and  N_14
REMARK                            x       y       z     vdW  Elec       q    Type
REMARK                         _______ _______ _______ _____ _____    ______ ____
ROOT
ATOM      1  N   UNL     1     -31.892 -11.967  14.074  0.00  0.00    -0.311 N 
ATOM      2  C   UNL     1     -31.611 -11.208  15.257  0.00  0.00    +0.217 A 
ATOM      3  N   UNL     1     -30.550 -11.520  16.045  0.00  0.00    -0.221 NA
ATOM      4  C   UNL     1     -30.275 -10.808  17.167  0.00  0.00    +0.150 A 
ATOM      5  C   UNL     1     -31.080  -9.720  17.529  0.00  0.00    +0.184 A 
ATOM      6  C   UNL     1     -32.195  -9.426  16.713  0.00  0.00    +0.152 A 
ATOM      7  N   UNL     1     -33.132  -8.400  17.053  0.00  0.00    -0.341 N 
ATOM      8  N   UNL     1     -32.421 -10.173  15.600  0.00  0.00    -0.198 NA
ATOM      9  H   UNL     1     -32.707 -11.676  13.488  0.00  0.00    +0.149 HD
ATOM     10  H   UNL     1     -33.900  -8.160  16.387  0.00  0.00    +0.144 HD
ATOM     11  H   UNL     1     -33.155  -7.959  17.997  0.00  0.00    +0.144 HD
ENDROOT
BRANCH   5  12
ATOM     12  N   UNL     1     -30.738  -8.933  18.682  0.00  0.00    +0.061 N 
ATOM     13  O   UNL     1     -31.687  -8.126  19.267  0.00  0.00    -0.126 OA
ATOM     14  O   UNL     1     -29.664  -9.133  19.286  0.00  0.00    -0.126 OA
ENDBRANCH   5  12
BRANCH   1  15
ATOM     15  C   UNL     1     -31.060 -13.101  13.650  0.00  0.00    +0.073 C 
BRANCH  15  17
ATOM     16  C   UNL     1     -29.704 -14.882  14.891  0.00  0.00    +0.006 C 
ATOM     17  C   UNL     1     -31.061 -14.192  14.755  0.00  0.00    +0.019 C 
ENDBRANCH  15  17
BRANCH  15  18
ATOM     18  C   UNL     1     -31.578 -13.638  12.295  0.00  0.00    +0.019 C 
ATOM     19  C   UNL     1     -32.994 -13.170  11.965  0.00  0.00    +0.006 C 
ENDBRANCH  15  18
ENDBRANCH   1  15
TORSDOF 4
ENDMDL
MODEL 8
REMARK VINA RESULT:    -3.317      5.470      7.138
REMARK INTER + INTRA:          -4.680
REMARK INTER:                  -4.015
REMARK INTRA:                  -0.664
REMARK UNBOUND:                -0.587
REMARK  Name = 
REMARK  6 active torsions:
REMARK  status: ('A' for Active; 'I' for Inactive)
REMARK    1  A    between atoms: C_1  and  C_2
REMARK    2  A    between atoms: C_2  and  C_3
REMARK    3  A    between atoms: C_3  and  C_4
REMARK    4  A    between atoms: C_3  and  N_6
REMARK    5  A    between atoms: C_4  and  C_5
REMARK    6  A    between atoms: C_10  and  N_14
REMARK                            x       y       z     vdW  Elec       q    Type
REMARK                         _______ _______ _______ _____ _____    ______ ____
ROOT
ATOM      1  N   UNL     1     -31.697 -11.921  13.909  0.00  0.00    -0.311 N 
ATOM      2  C   UNL     1     -32.076 -11.618  15.258  0.00  0.00    +0.217 A 
ATOM      3  N   UNL     1     -32.560 -12.587  16.077  0.00  0.00    -0.221 NA
ATOM      4  C   UNL     1     -32.922 -12.311  17.355  0.00  0.00    +0.150 A 
ATOM      5  C   UNL     1     -32.789 -11.012  17.863  0.00  0.00    +0.184 A 
ATOM      6  C   UNL     1     -32.309 -10.011  16.990  0.00  0.00    +0.152 A 
ATOM      7  N   UNL     1     -32.232  -8.637  17.383  0.00  0.00    -0.341 N 
ATOM      8  N   UNL     1     -31.961 -10.345  15.718  0.00  0.00    -0.198 NA
ATOM      9  H   UNL     1     -31.309 -11.146  13.324  0.00  0.00    +0.149 HD
ATOM     10  H   UNL     1     -31.801  -7.938  16.739  0.00  0.00    +0.144 HD
ATOM     11  H   UNL     1     -32.700  -8.278  18.242  0.00  0.00    +0.144 HD
ENDROOT
BRANCH   5  12
ATOM     12  N   UNL     1     -33.112 -10.748  19.237  0.00  0.00    +0.061 N 
ATOM     13  O   UNL     1     -33.632  -9.526  19.597  0.00  0.00    -0.126 OA
ATOM     14  O   UNL     1     -33.130 -11.678  20.070  0.00  0.00    -0.126 OA
ENDBRANCH   5  12
BRANCH   1  15
ATOM     15  C   UNL     1     -31.801 -13.274  13.347  0.00  0.00    +0.073 C 
BRANCH  15  17
ATOM     16  C   UNL     1     -33.860 -12.609  11.979  0.00  0.00    +0.006 C 
ATOM     17  C   UNL     1     -32.453 -13.205  11.939  0.00  0.00    +0.019 C 
ENDBRANCH  15  17
BRANCH  15  18
ATOM     18  C   UNL     1     -30.398 -13.924  13.311  0.00  0.00    +0.019 C 
ATOM     19  C   UNL     1     -30.113 -14.804  14.527  0.00  0.00    +0.006 C 
ENDBRANCH  15  18
ENDBRANCH   1  15
TORSDOF 4
ENDMDL
