MODEL 1
REMARK VINA RESULT:    -4.943      0.000      0.000
REMARK INTER + INTRA:          -6.432
REMARK INTER:                  -6.099
REMARK INTRA:                  -0.333
REMARK UNBOUND:                -0.333
REMARK  Name = 
REMARK  4 active torsions:
REMARK  status: ('A' for Active; 'I' for Inactive)
REMARK    1  A    between atoms: C_2  and  C_3
REMARK    2  A    between atoms: N_13  and  C_14
REMARK    3  A    between atoms: C_14  and  C_15
REMARK    4  A    between atoms: C_19  and  N_21
REMARK                            x       y       z     vdW  Elec       q    Type
REMARK                         _______ _______ _______ _____ _____    ______ ____
ROOT
ATOM      1  C   UNL     1     -27.269 -13.112  20.151  0.00  0.00    +0.052 A 
ATOM      2  C   UNL     1     -28.431 -13.615  20.752  0.00  0.00    +0.021 A 
ATOM      3  C   UNL     1     -29.690 -13.182  20.323  0.00  0.00    +0.029 A 
ATOM      4  C   UNL     1     -29.794 -12.244  19.291  0.00  0.00    +0.073 A 
ATOM      5  N   UNL     1     -31.017 -11.820  18.873  0.00  0.00    -0.232 NA
ATOM      6  C   UNL     1     -31.169 -10.907  17.875  0.00  0.00    +0.120 A 
ATOM      7  C   UNL     1     -30.026 -10.384  17.242  0.00  0.00    +0.044 A 
ATOM      8  C   UNL     1     -28.757 -10.798  17.650  0.00  0.00    +0.013 A 
ATOM      9  C   UNL     1     -28.627 -11.735  18.682  0.00  0.00    +0.002 A 
ATOM     10  C   UNL     1     -27.367 -12.172  19.116  0.00  0.00    +0.029 A 
ATOM     11  N   UNL     1     -32.499 -10.511  17.497  0.00  0.00    -0.325 N 
ATOM     12  H   UNL     1     -33.302 -11.008  17.944  0.00  0.00    +0.148 HD
ENDROOT
BRANCH   1  14
ATOM     13  N   UNL     1     -24.938 -13.922  20.955  0.00  0.00    -0.191 NA
ATOM     14  C   UNL     1     -25.976 -13.561  20.596  0.00  0.00    +0.099 C 
ENDBRANCH   1  14
BRANCH  11  15
ATOM     15  C   UNL     1     -32.811  -9.420  16.572  0.00  0.00    +0.138 C 
BRANCH  15  16
ATOM     16  C   UNL     1     -33.462  -9.951  15.322  0.00  0.00    -0.028 A 
ATOM     17  C   UNL     1     -34.462  -9.213  14.670  0.00  0.00    +0.005 A 
ATOM     18  C   UNL     1     -35.059  -9.708  13.510  0.00  0.00    +0.003 A 
ATOM     19  C   UNL     1     -34.658 -10.938  12.983  0.00  0.00    +0.033 A 
ATOM     20  C   UNL     1     -33.650 -11.688  13.611  0.00  0.00    +0.127 A 
ATOM     21  C   UNL     1     -33.053 -11.182  14.782  0.00  0.00    +0.038 A 
BRANCH  20  22
ATOM     22  N   UNL     1     -33.236 -12.953  13.064  0.00  0.00    +0.056 N 
ATOM     23  O   UNL     1     -32.086 -13.565  13.508  0.00  0.00    -0.126 OA
ATOM     24  O   UNL     1     -33.911 -13.516  12.176  0.00  0.00    -0.126 OA
ENDBRANCH  20  22
ENDBRANCH  15  16
ENDBRANCH  11  15
TORSDOF 4
ENDMDL
MODEL 2
REMARK VINA RESULT:    -4.247      3.098      3.685
REMARK INTER + INTRA:          -5.573
REMARK INTER:                  -5.179
REMARK INTRA:                  -0.393
REMARK UNBOUND:                -0.333
REMARK  Name = 
REMARK  4 active torsions:
REMARK  status: ('A' for Active; 'I' for Inactive)
REMARK    1  A    between atoms: C_2  and  C_3
REMARK    2  A    between atoms: N_13  and  C_14
REMARK    3  A    between atoms: C_14  and  C_15
REMARK    4  A    between atoms: C_19  and  N_21
REMARK                            x       y       z     vdW  Elec       q    Type
REMARK                         _______ _______ _______ _____ _____    ______ ____
ROOT
ATOM      1  C   UNL     1     -27.414 -13.377  20.245  0.00  0.00    +0.052 A 
ATOM      2  C   UNL     1     -28.422 -13.366  21.219  0.00  0.00    +0.021 A 
ATOM      3  C   UNL     1     -29.758 -13.184  20.847  0.00  0.00    +0.029 A 
ATOM      4  C   UNL     1     -30.094 -13.013  19.500  0.00  0.00    +0.073 A 
ATOM      5  N   UNL     1     -31.392 -12.834  19.137  0.00  0.00    -0.232 NA
ATOM      6  C   UNL     1     -31.767 -12.661  17.839  0.00  0.00    +0.120 A 
ATOM      7  C   UNL     1     -30.785 -12.673  16.832  0.00  0.00    +0.044 A 
ATOM      8  C   UNL     1     -29.443 -12.852  17.175  0.00  0.00    +0.013 A 
ATOM      9  C   UNL     1     -29.082 -13.024  18.516  0.00  0.00    +0.002 A 
ATOM     10  C   UNL     1     -27.744 -13.206  18.894  0.00  0.00    +0.029 A 
ATOM     11  N   UNL     1     -33.162 -12.475  17.542  0.00  0.00    -0.325 N 
ATOM     12  H   UNL     1     -33.845 -12.570  18.327  0.00  0.00    +0.148 HD
ENDROOT
BRANCH   1  14
ATOM     13  N   UNL     1     -24.938 -13.716  20.946  0.00  0.00    -0.191 NA
ATOM     14  C   UNL     1     -26.041 -13.565  20.634  0.00  0.00    +0.099 C 
ENDBRANCH   1  14
BRANCH  11  15
ATOM     15  C   UNL     1     -33.691 -12.105  16.228  0.00  0.00    +0.138 C 
BRANCH  15  16
ATOM     16  C   UNL     1     -34.058 -10.644  16.194  0.00  0.00    -0.028 A 
ATOM     17  C   UNL     1     -34.291  -9.996  14.971  0.00  0.00    +0.005 A 
ATOM     18  C   UNL     1     -34.635  -8.644  14.946  0.00  0.00    +0.003 A 
ATOM     19  C   UNL     1     -34.760  -7.928  16.138  0.00  0.00    +0.033 A 
ATOM     20  C   UNL     1     -34.545  -8.559  17.374  0.00  0.00    +0.127 A 
ATOM     21  C   UNL     1     -34.197  -9.924  17.392  0.00  0.00    +0.038 A 
BRANCH  20  22
ATOM     22  N   UNL     1     -34.679  -7.820  18.602  0.00  0.00    +0.056 N 
ATOM     23  O   UNL     1     -34.388  -8.412  19.810  0.00  0.00    -0.126 OA
ATOM     24  O   UNL     1     -35.062  -6.632  18.593  0.00  0.00    -0.126 OA
ENDBRANCH  20  22
ENDBRANCH  15  16
ENDBRANCH  11  15
TORSDOF 4
ENDMDL
MODEL 3
REMARK VINA RESULT:    -3.928      4.737      6.771
REMARK INTER + INTRA:          -5.179
REMARK INTER:                  -4.786
REMARK INTRA:                  -0.393
REMARK UNBOUND:                -0.333
REMARK  Name = 
REMARK  4 active torsions:
REMARK  status: ('A' for Active; 'I' for Inactive)
REMARK    1  A    between atoms: C_2  and  C_3
REMARK    2  A    between atoms: N_13  and  C_14
REMARK    3  A    between atoms: C_14  and  C_15
REMARK    4  A    between atoms: C_19  and  N_21
REMARK                            x       y       z     vdW  Elec       q    Type
REMARK                         _______ _______ _______ _____ _____    ______ ____
ROOT
ATOM      1  C   UNL     1     -29.183 -14.340  13.782  0.00  0.00    +0.052 A 
ATOM      2  C   UNL     1     -30.549 -14.241  13.485  0.00  0.00    +0.021 A 
ATOM      3  C   UNL     1     -31.458 -13.853  14.474  0.00  0.00    +0.029 A 
ATOM      4  C   UNL     1     -31.006 -13.561  15.765  0.00  0.00    +0.073 A 
ATOM      5  N   UNL     1     -31.888 -13.185  16.730  0.00  0.00    -0.232 NA
ATOM      6  C   UNL     1     -31.497 -12.894  18.001  0.00  0.00    +0.120 A 
ATOM      7  C   UNL     1     -30.133 -12.974  18.336  0.00  0.00    +0.044 A 
ATOM      8  C   UNL     1     -29.203 -13.360  17.368  0.00  0.00    +0.013 A 
ATOM      9  C   UNL     1     -29.631 -13.658  16.069  0.00  0.00    +0.002 A 
ATOM     10  C   UNL     1     -28.724 -14.049  15.073  0.00  0.00    +0.029 A 
ATOM     11  N   UNL     1     -32.496 -12.507  18.961  0.00  0.00    -0.325 N 
ATOM     12  H   UNL     1     -33.475 -12.378  18.620  0.00  0.00    +0.148 HD
ENDROOT
BRANCH   1  14
ATOM     13  N   UNL     1     -27.504 -15.061  11.938  0.00  0.00    -0.191 NA
ATOM     14  C   UNL     1     -28.252 -14.740  12.759  0.00  0.00    +0.099 C 
ENDBRANCH   1  14
BRANCH  11  15
ATOM     15  C   UNL     1     -32.252 -12.337  20.394  0.00  0.00    +0.138 C 
BRANCH  15  16
ATOM     16  C   UNL     1     -32.648 -10.954  20.841  0.00  0.00    -0.028 A 
ATOM     17  C   UNL     1     -33.795 -10.760  21.626  0.00  0.00    +0.005 A 
ATOM     18  C   UNL     1     -34.154  -9.477  22.041  0.00  0.00    +0.003 A 
ATOM     19  C   UNL     1     -33.370  -8.378  21.687  0.00  0.00    +0.033 A 
ATOM     20  C   UNL     1     -32.209  -8.549  20.914  0.00  0.00    +0.127 A 
ATOM     21  C   UNL     1     -31.853  -9.847  20.498  0.00  0.00    +0.038 A 
BRANCH  20  22
ATOM     22  N   UNL     1     -31.400  -7.415  20.554  0.00  0.00    +0.056 N 
ATOM     23  O   UNL     1     -31.984  -6.207  20.251  0.00  0.00    -0.126 OA
ATOM     24  O   UNL     1     -30.155  -7.509  20.507  0.00  0.00    -0.126 OA
ENDBRANCH  20  22
ENDBRANCH  15  16
ENDBRANCH  11  15
TORSDOF 4
ENDMDL
MODEL 4
REMARK VINA RESULT:    -3.782      2.960      3.589
REMARK INTER + INTRA:          -4.999
REMARK INTER:                  -4.731
REMARK INTRA:                  -0.268
REMARK UNBOUND:                -0.333
REMARK  Name = 
REMARK  4 active torsions:
REMARK  status: ('A' for Active; 'I' for Inactive)
REMARK    1  A    between atoms: C_2  and  C_3
REMARK    2  A    between atoms: N_13  and  C_14
REMARK    3  A    between atoms: C_14  and  C_15
REMARK    4  A    between atoms: C_19  and  N_21
REMARK                            x       y       z     vdW  Elec       q    Type
REMARK                         _______ _______ _______ _____ _____    ______ ____
ROOT
ATOM      1  C   UNL     1     -27.120 -13.304  20.290  0.00  0.00    +0.052 A 
ATOM      2  C   UNL     1     -26.645 -12.448  19.288  0.00  0.00    +0.021 A 
ATOM      3  C   UNL     1     -27.542 -11.717  18.502  0.00  0.00    +0.029 A 
ATOM      4  C   UNL     1     -28.919 -11.838  18.714  0.00  0.00    +0.073 A 
ATOM      5  N   UNL     1     -29.794 -11.131  17.951  0.00  0.00    -0.232 NA
ATOM      6  C   UNL     1     -31.143 -11.218  18.118  0.00  0.00    +0.120 A 
ATOM      7  C   UNL     1     -31.658 -12.061  19.119  0.00  0.00    +0.044 A 
ATOM      8  C   UNL     1     -30.785 -12.802  19.918  0.00  0.00    +0.013 A 
ATOM      9  C   UNL     1     -29.403 -12.699  19.723  0.00  0.00    +0.002 A 
ATOM     10  C   UNL     1     -28.499 -13.430  20.508  0.00  0.00    +0.029 A 
ATOM     11  N   UNL     1     -31.997 -10.436  17.265  0.00  0.00    -0.325 N 
ATOM     12  H   UNL     1     -31.544  -9.762  16.607  0.00  0.00    +0.148 HD
ENDROOT
BRANCH   1  14
ATOM     13  N   UNL     1     -25.446 -14.655  21.743  0.00  0.00    -0.191 NA
ATOM     14  C   UNL     1     -26.192 -14.054  21.096  0.00  0.00    +0.099 C 
ENDBRANCH   1  14
BRANCH  11  15
ATOM     15  C   UNL     1     -33.455 -10.558  17.210  0.00  0.00    +0.138 C 
BRANCH  15  16
ATOM     16  C   UNL     1     -34.010  -9.787  16.042  0.00  0.00    -0.028 A 
ATOM     17  C   UNL     1     -34.378 -10.449  14.860  0.00  0.00    +0.005 A 
ATOM     18  C   UNL     1     -34.897  -9.729  13.783  0.00  0.00    +0.003 A 
ATOM     19  C   UNL     1     -35.062  -8.346  13.876  0.00  0.00    +0.033 A 
ATOM     20  C   UNL     1     -34.713  -7.664  15.054  0.00  0.00    +0.127 A 
ATOM     21  C   UNL     1     -34.190  -8.397  16.137  0.00  0.00    +0.038 A 
BRANCH  20  22
ATOM     22  N   UNL     1     -34.889  -6.238  15.149  0.00  0.00    +0.056 N 
ATOM     23  O   UNL     1     -35.050  -5.634  16.374  0.00  0.00    -0.126 OA
ATOM     24  O   UNL     1     -34.901  -5.527  14.122  0.00  0.00    -0.126 OA
ENDBRANCH  20  22
ENDBRANCH  15  16
ENDBRANCH  11  15
TORSDOF 4
ENDMDL
MODEL 5
REMARK VINA RESULT:    -3.749      2.918      8.203
REMARK INTER + INTRA:          -4.959
REMARK INTER:                  -4.695
REMARK INTRA:                  -0.264
REMARK UNBOUND:                -0.333
REMARK  Name = 
REMARK  4 active torsions:
REMARK  status: ('A' for Active; 'I' for Inactive)
REMARK    1  A    between atoms: C_2  and  C_3
REMARK    2  A    between atoms: N_13  and  C_14
REMARK    3  A    between atoms: C_14  and  C_15
REMARK    4  A    between atoms: C_19  and  N_21
REMARK                            x       y       z     vdW  Elec       q    Type
REMARK                         _______ _______ _______ _____ _____    ______ ____
ROOT
ATOM      1  C   UNL     1     -33.928 -10.905  14.340  0.00  0.00    +0.052 A 
ATOM      2  C   UNL     1     -33.771  -9.664  14.972  0.00  0.00    +0.021 A 
ATOM      3  C   UNL     1     -33.160  -9.586  16.228  0.00  0.00    +0.029 A 
ATOM      4  C   UNL     1     -32.703 -10.747  16.858  0.00  0.00    +0.073 A 
ATOM      5  N   UNL     1     -32.110 -10.674  18.080  0.00  0.00    -0.232 NA
ATOM      6  C   UNL     1     -31.652 -11.777  18.734  0.00  0.00    +0.120 A 
ATOM      7  C   UNL     1     -31.784 -13.039  18.129  0.00  0.00    +0.044 A 
ATOM      8  C   UNL     1     -32.390 -13.147  16.875  0.00  0.00    +0.013 A 
ATOM      9  C   UNL     1     -32.858 -11.999  16.225  0.00  0.00    +0.002 A 
ATOM     10  C   UNL     1     -33.471 -12.072  14.966  0.00  0.00    +0.029 A 
ATOM     11  N   UNL     1     -31.040 -11.610  20.025  0.00  0.00    -0.325 N 
ATOM     12  H   UNL     1     -30.891 -10.636  20.373  0.00  0.00    +0.148 HD
ENDROOT
BRANCH   1  14
ATOM     13  N   UNL     1     -35.062 -11.039  12.009  0.00  0.00    -0.191 NA
ATOM     14  C   UNL     1     -34.557 -10.979  13.047  0.00  0.00    +0.099 C 
ENDBRANCH   1  14
BRANCH  11  15
ATOM     15  C   UNL     1     -30.664 -12.710  20.916  0.00  0.00    +0.138 C 
BRANCH  15  16
ATOM     16  C   UNL     1     -29.191 -13.004  20.804  0.00  0.00    -0.028 A 
ATOM     17  C   UNL     1     -28.614 -14.045  21.549  0.00  0.00    +0.005 A 
ATOM     18  C   UNL     1     -27.250 -14.317  21.438  0.00  0.00    +0.003 A 
ATOM     19  C   UNL     1     -26.450 -13.562  20.578  0.00  0.00    +0.033 A 
ATOM     20  C   UNL     1     -27.008 -12.524  19.812  0.00  0.00    +0.127 A 
ATOM     21  C   UNL     1     -28.386 -12.255  19.930  0.00  0.00    +0.038 A 
BRANCH  20  22
ATOM     22  N   UNL     1     -26.183 -11.750  18.923  0.00  0.00    +0.056 N 
ATOM     23  O   UNL     1     -26.753 -10.938  17.970  0.00  0.00    -0.126 OA
ATOM     24  O   UNL     1     -24.938 -11.804  18.999  0.00  0.00    -0.126 OA
ENDBRANCH  20  22
ENDBRANCH  15  16
ENDBRANCH  11  15
TORSDOF 4
ENDMDL
MODEL 6
REMARK VINA RESULT:    -3.703      3.454      5.324
REMARK INTER + INTRA:          -4.902
REMARK INTER:                  -4.495
REMARK INTRA:                  -0.407
REMARK UNBOUND:                -0.333
REMARK  Name = 
REMARK  4 active torsions:
REMARK  status: ('A' for Active; 'I' for Inactive)
REMARK    1  A    between atoms: C_2  and  C_3
REMARK    2  A    between atoms: N_13  and  C_14
REMARK    3  A    between atoms: C_14  and  C_15
REMARK    4  A    between atoms: C_19  and  N_21
REMARK                            x       y       z     vdW  Elec       q    Type
REMARK                         _______ _______ _______ _____ _____    ______ ____
ROOT
ATOM      1  C   UNL     1     -31.596  -7.528  20.245  0.00  0.00    +0.052 A 
ATOM      2  C   UNL     1     -32.827  -7.779  19.625  0.00  0.00    +0.021 A 
ATOM      3  C   UNL     1     -33.040  -8.981  18.944  0.00  0.00    +0.029 A 
ATOM      4  C   UNL     1     -32.023  -9.939  18.878  0.00  0.00    +0.073 A 
ATOM      5  N   UNL     1     -32.227 -11.108  18.214  0.00  0.00    -0.232 NA
ATOM      6  C   UNL     1     -31.266 -12.069  18.120  0.00  0.00    +0.120 A 
ATOM      7  C   UNL     1     -30.020 -11.857  18.736  0.00  0.00    +0.044 A 
ATOM      8  C   UNL     1     -29.780 -10.665  19.423  0.00  0.00    +0.013 A 
ATOM      9  C   UNL     1     -30.781  -9.691  19.501  0.00  0.00    +0.002 A 
ATOM     10  C   UNL     1     -30.573  -8.483  20.184  0.00  0.00    +0.029 A 
ATOM     11  N   UNL     1     -31.564 -13.276  17.396  0.00  0.00    -0.325 N 
ATOM     12  H   UNL     1     -32.540 -13.406  17.045  0.00  0.00    +0.148 HD
ENDROOT
BRANCH   1  14
ATOM     13  N   UNL     1     -31.211  -5.293  21.509  0.00  0.00    -0.191 NA
ATOM     14  C   UNL     1     -31.383  -6.288  20.946  0.00  0.00    +0.099 C 
ENDBRANCH   1  14
BRANCH  11  15
ATOM     15  C   UNL     1     -30.584 -14.311  17.064  0.00  0.00    +0.138 C 
BRANCH  15  16
ATOM     16  C   UNL     1     -30.290 -14.312  15.587  0.00  0.00    -0.028 A 
ATOM     17  C   UNL     1     -29.094 -14.862  15.099  0.00  0.00    +0.005 A 
ATOM     18  C   UNL     1     -28.830 -14.865  13.728  0.00  0.00    +0.003 A 
ATOM     19  C   UNL     1     -29.756 -14.329  12.832  0.00  0.00    +0.033 A 
ATOM     20  C   UNL     1     -30.965 -13.785  13.297  0.00  0.00    +0.127 A 
ATOM     21  C   UNL     1     -31.225 -13.785  14.681  0.00  0.00    +0.038 A 
BRANCH  20  22
ATOM     22  N   UNL     1     -31.921 -13.237  12.371  0.00  0.00    +0.056 N 
ATOM     23  O   UNL     1     -32.991 -13.988  11.943  0.00  0.00    -0.126 OA
ATOM     24  O   UNL     1     -31.794 -12.072  11.937  0.00  0.00    -0.126 OA
ENDBRANCH  20  22
ENDBRANCH  15  16
ENDBRANCH  11  15
TORSDOF 4
ENDMDL
MODEL 7
REMARK VINA RESULT:    -3.546      4.326      6.445
REMARK INTER + INTRA:          -4.708
REMARK INTER:                  -4.240
REMARK INTRA:                  -0.468
REMARK UNBOUND:                -0.333
REMARK  Name = 
REMARK  4 active torsions:
REMARK  status: ('A' for Active; 'I' for Inactive)
REMARK    1  A    between atoms: C_2  and  C_3
REMARK    2  A    between atoms: N_13  and  C_14
REMARK    3  A    between atoms: C_14  and  C_15
REMARK    4  A    between atoms: C_19  and  N_21
REMARK                            x       y       z     vdW  Elec       q    Type
REMARK                         _______ _______ _______ _____ _____    ______ ____
ROOT
ATOM      1  C   UNL     1     -29.981 -14.263  14.389  0.00  0.00    +0.052 A 
ATOM      2  C   UNL     1     -28.916 -14.364  15.294  0.00  0.00    +0.021 A 
ATOM      3  C   UNL     1     -29.072 -13.936  16.616  0.00  0.00    +0.029 A 
ATOM      4  C   UNL     1     -30.294 -13.404  17.041  0.00  0.00    +0.073 A 
ATOM      5  N   UNL     1     -30.448 -12.985  18.325  0.00  0.00    -0.232 NA
ATOM      6  C   UNL     1     -31.617 -12.458  18.784  0.00  0.00    +0.120 A 
ATOM      7  C   UNL     1     -32.711 -12.347  17.908  0.00  0.00    +0.044 A 
ATOM      8  C   UNL     1     -32.583 -12.767  16.582  0.00  0.00    +0.013 A 
ATOM      9  C   UNL     1     -31.370 -13.301  16.133  0.00  0.00    +0.002 A 
ATOM     10  C   UNL     1     -31.208 -13.732  14.808  0.00  0.00    +0.029 A 
ATOM     11  N   UNL     1     -31.693 -12.036  20.157  0.00  0.00    -0.325 N 
ATOM     12  H   UNL     1     -30.873 -12.233  20.774  0.00  0.00    +0.148 HD
ENDROOT
BRANCH   1  14
ATOM     13  N   UNL     1     -29.680 -15.062  11.938  0.00  0.00    -0.191 NA
ATOM     14  C   UNL     1     -29.814 -14.707  13.030  0.00  0.00    +0.099 C 
ENDBRANCH   1  14
BRANCH  11  15
ATOM     15  C   UNL     1     -32.815 -11.297  20.740  0.00  0.00    +0.138 C 
BRANCH  15  16
ATOM     16  C   UNL     1     -32.584  -9.812  20.637  0.00  0.00    -0.028 A 
ATOM     17  C   UNL     1     -31.533  -9.204  21.341  0.00  0.00    +0.005 A 
ATOM     18  C   UNL     1     -31.321  -7.828  21.238  0.00  0.00    +0.003 A 
ATOM     19  C   UNL     1     -32.148  -7.048  20.427  0.00  0.00    +0.033 A 
ATOM     20  C   UNL     1     -33.199  -7.638  19.704  0.00  0.00    +0.127 A 
ATOM     21  C   UNL     1     -33.407  -9.026  19.813  0.00  0.00    +0.038 A 
BRANCH  20  22
ATOM     22  N   UNL     1     -34.047  -6.832  18.865  0.00  0.00    +0.056 N 
ATOM     23  O   UNL     1     -33.756  -5.506  18.645  0.00  0.00    -0.126 OA
ATOM     24  O   UNL     1     -35.062  -7.321  18.326  0.00  0.00    -0.126 OA
ENDBRANCH  20  22
ENDBRANCH  15  16
ENDBRANCH  11  15
TORSDOF 4
ENDMDL
MODEL 8
REMARK VINA RESULT:    -3.520      4.072      5.213
REMARK INTER + INTRA:          -4.676
REMARK INTER:                  -4.928
REMARK INTRA:                   0.252
REMARK UNBOUND:                -0.333
REMARK  Name = 
REMARK  4 active torsions:
REMARK  status: ('A' for Active; 'I' for Inactive)
REMARK    1  A    between atoms: C_2  and  C_3
REMARK    2  A    between atoms: N_13  and  C_14
REMARK    3  A    between atoms: C_14  and  C_15
REMARK    4  A    between atoms: C_19  and  N_21
REMARK                            x       y       z     vdW  Elec       q    Type
REMARK                         _______ _______ _______ _____ _____    ______ ____
ROOT
ATOM      1  C   UNL     1     -32.036  -8.575  20.217  0.00  0.00    +0.052 A 
ATOM      2  C   UNL     1     -33.123  -9.417  20.488  0.00  0.00    +0.021 A 
ATOM      3  C   UNL     1     -33.612 -10.275  19.499  0.00  0.00    +0.029 A 
ATOM      4  C   UNL     1     -33.017 -10.298  18.233  0.00  0.00    +0.073 A 
ATOM      5  N   UNL     1     -33.492 -11.130  17.269  0.00  0.00    -0.232 NA
ATOM      6  C   UNL     1     -32.947 -11.185  16.022  0.00  0.00    +0.120 A 
ATOM      7  C   UNL     1     -31.850 -10.362  15.714  0.00  0.00    +0.044 A 
ATOM      8  C   UNL     1     -31.341  -9.495  16.683  0.00  0.00    +0.013 A 
ATOM      9  C   UNL     1     -31.921  -9.453  17.956  0.00  0.00    +0.002 A 
ATOM     10  C   UNL     1     -31.434  -8.593  18.952  0.00  0.00    +0.029 A 
ATOM     11  N   UNL     1     -33.514 -12.093  15.060  0.00  0.00    -0.325 N 
ATOM     12  H   UNL     1     -34.267 -12.741  15.384  0.00  0.00    +0.148 HD
ENDROOT
BRANCH   1  14
ATOM     13  N   UNL     1     -31.135  -6.986  22.062  0.00  0.00    -0.191 NA
ATOM     14  C   UNL     1     -31.536  -7.694  21.240  0.00  0.00    +0.099 C 
ENDBRANCH   1  14
BRANCH  11  15
ATOM     15  C   UNL     1     -33.151 -12.135  13.642  0.00  0.00    +0.138 C 
BRANCH  15  16
ATOM     16  C   UNL     1     -32.045 -13.130  13.405  0.00  0.00    -0.028 A 
ATOM     17  C   UNL     1     -31.901 -13.749  12.153  0.00  0.00    +0.005 A 
ATOM     18  C   UNL     1     -30.871 -14.666  11.938  0.00  0.00    +0.003 A 
ATOM     19  C   UNL     1     -29.971 -14.967  12.962  0.00  0.00    +0.033 A 
ATOM     20  C   UNL     1     -30.088 -14.349  14.218  0.00  0.00    +0.127 A 
ATOM     21  C   UNL     1     -31.130 -13.425  14.429  0.00  0.00    +0.038 A 
BRANCH  20  22
ATOM     22  N   UNL     1     -29.157 -14.657  15.271  0.00  0.00    +0.056 N 
ATOM     23  O   UNL     1     -27.806 -14.710  15.016  0.00  0.00    -0.126 OA
ATOM     24  O   UNL     1     -29.558 -14.884  16.432  0.00  0.00    -0.126 OA
ENDBRANCH  20  22
ENDBRANCH  15  16
ENDBRANCH  11  15
TORSDOF 4
ENDMDL
