MODEL 1
REMARK VINA RESULT:    -4.947      0.000      0.000
REMARK INTER + INTRA:          -6.433
REMARK INTER:                  -6.103
REMARK INTRA:                  -0.330
REMARK UNBOUND:                -0.330
REMARK  Name = 
REMARK  4 active torsions:
REMARK  status: ('A' for Active; 'I' for Inactive)
REMARK    1  A    between atoms: C_2  and  C_3
REMARK    2  A    between atoms: N_13  and  C_14
REMARK    3  A    between atoms: C_14  and  C_15
REMARK    4  A    between atoms: C_19  and  N_21
REMARK                            x       y       z     vdW  Elec       q    Type
REMARK                         _______ _______ _______ _____ _____    ______ ____
ROOT
ATOM      1  C   UNL     1     -27.275 -13.117  20.150  0.00  0.00    +0.052 A 
ATOM      2  C   UNL     1     -28.434 -13.634  20.743  0.00  0.00    +0.021 A 
ATOM      3  C   UNL     1     -29.695 -13.207  20.314  0.00  0.00    +0.029 A 
ATOM      4  C   UNL     1     -29.804 -12.261  19.291  0.00  0.00    +0.073 A 
ATOM      5  N   UNL     1     -31.029 -11.843  18.874  0.00  0.00    -0.232 NA
ATOM      6  C   UNL     1     -31.185 -10.921  17.883  0.00  0.00    +0.120 A 
ATOM      7  C   UNL     1     -30.045 -10.384  17.258  0.00  0.00    +0.044 A 
ATOM      8  C   UNL     1     -28.774 -10.792  17.666  0.00  0.00    +0.013 A 
ATOM      9  C   UNL     1     -28.639 -11.737  18.690  0.00  0.00    +0.002 A 
ATOM     10  C   UNL     1     -27.377 -12.168  19.123  0.00  0.00    +0.029 A 
ATOM     11  N   UNL     1     -32.517 -10.532  17.505  0.00  0.00    -0.325 N 
ATOM     12  H   UNL     1     -33.317 -11.040  17.946  0.00  0.00    +0.148 HD
ENDROOT
BRANCH   1  14
ATOM     13  N   UNL     1     -24.939 -13.916  20.952  0.00  0.00    -0.191 NA
ATOM     14  C   UNL     1     -25.979 -13.560  20.595  0.00  0.00    +0.099 C 
ENDBRANCH   1  14
BRANCH  11  15
ATOM     15  C   UNL     1     -32.835  -9.436  16.588  0.00  0.00    +0.138 C 
BRANCH  15  16
ATOM     16  C   UNL     1     -33.473  -9.962  15.329  0.00  0.00    -0.028 A 
ATOM     17  C   UNL     1     -34.479  -9.229  14.680  0.00  0.00    +0.005 A 
ATOM     18  C   UNL     1     -35.062  -9.719  13.511  0.00  0.00    +0.003 A 
ATOM     19  C   UNL     1     -34.644 -10.938  12.973  0.00  0.00    +0.033 A 
ATOM     20  C   UNL     1     -33.630 -11.682  13.599  0.00  0.00    +0.127 A 
ATOM     21  C   UNL     1     -33.045 -11.182  14.779  0.00  0.00    +0.038 A 
BRANCH  20  22
ATOM     22  N   UNL     1     -33.197 -12.936  13.041  0.00  0.00    +0.056 N 
ATOM     23  O   UNL     1     -31.972 -13.465  13.376  0.00  0.00    -0.126 OA
ATOM     24  O   UNL     1     -33.923 -13.563  12.241  0.00  0.00    -0.126 OA
ENDBRANCH  20  22
ENDBRANCH  15  16
ENDBRANCH  11  15
TORSDOF 4
ENDMDL
MODEL 2
REMARK VINA RESULT:    -4.334      4.553      6.134
REMARK INTER + INTRA:          -5.677
REMARK INTER:                  -5.487
REMARK INTRA:                  -0.190
REMARK UNBOUND:                -0.330
REMARK  Name = 
REMARK  4 active torsions:
REMARK  status: ('A' for Active; 'I' for Inactive)
REMARK    1  A    between atoms: C_2  and  C_3
REMARK    2  A    between atoms: N_13  and  C_14
REMARK    3  A    between atoms: C_14  and  C_15
REMARK    4  A    between atoms: C_19  and  N_21
REMARK                            x       y       z     vdW  Elec       q    Type
REMARK                         _______ _______ _______ _____ _____    ______ ____
ROOT
ATOM      1  C   UNL     1     -29.848 -14.163  13.767  0.00  0.00    +0.052 A 
ATOM      2  C   UNL     1     -29.922 -14.798  15.014  0.00  0.00    +0.021 A 
ATOM      3  C   UNL     1     -30.793 -14.319  15.998  0.00  0.00    +0.029 A 
ATOM      4  C   UNL     1     -31.595 -13.203  15.740  0.00  0.00    +0.073 A 
ATOM      5  N   UNL     1     -32.442 -12.734  16.695  0.00  0.00    -0.232 NA
ATOM      6  C   UNL     1     -33.240 -11.649  16.491  0.00  0.00    +0.120 A 
ATOM      7  C   UNL     1     -33.200 -10.990  15.250  0.00  0.00    +0.044 A 
ATOM      8  C   UNL     1     -32.339 -11.446  14.249  0.00  0.00    +0.013 A 
ATOM      9  C   UNL     1     -31.525 -12.560  14.485  0.00  0.00    +0.002 A 
ATOM     10  C   UNL     1     -30.649 -13.045  13.502  0.00  0.00    +0.029 A 
ATOM     11  N   UNL     1     -34.104 -11.217  17.557  0.00  0.00    -0.325 N 
ATOM     12  H   UNL     1     -34.151 -11.809  18.417  0.00  0.00    +0.148 HD
ENDROOT
BRANCH   1  14
ATOM     13  N   UNL     1     -28.227 -15.062  11.949  0.00  0.00    -0.191 NA
ATOM     14  C   UNL     1     -28.949 -14.661  12.758  0.00  0.00    +0.099 C 
ENDBRANCH   1  14
BRANCH  11  15
ATOM     15  C   UNL     1     -34.881  -9.976  17.547  0.00  0.00    +0.138 C 
BRANCH  15  16
ATOM     16  C   UNL     1     -34.127  -8.871  18.238  0.00  0.00    -0.028 A 
ATOM     17  C   UNL     1     -34.762  -7.656  18.542  0.00  0.00    +0.005 A 
ATOM     18  C   UNL     1     -34.060  -6.637  19.187  0.00  0.00    +0.003 A 
ATOM     19  C   UNL     1     -32.722  -6.822  19.544  0.00  0.00    +0.033 A 
ATOM     20  C   UNL     1     -32.070  -8.034  19.262  0.00  0.00    +0.127 A 
ATOM     21  C   UNL     1     -32.785  -9.058  18.611  0.00  0.00    +0.038 A 
BRANCH  20  22
ATOM     22  N   UNL     1     -30.693  -8.224  19.635  0.00  0.00    +0.056 N 
ATOM     23  O   UNL     1     -29.943  -9.222  19.057  0.00  0.00    -0.126 OA
ATOM     24  O   UNL     1     -30.157  -7.489  20.491  0.00  0.00    -0.126 OA
ENDBRANCH  20  22
ENDBRANCH  15  16
ENDBRANCH  11  15
TORSDOF 4
ENDMDL
MODEL 3
REMARK VINA RESULT:    -4.241      3.114      3.704
REMARK INTER + INTRA:          -5.563
REMARK INTER:                  -5.171
REMARK INTRA:                  -0.391
REMARK UNBOUND:                -0.330
REMARK  Name = 
REMARK  4 active torsions:
REMARK  status: ('A' for Active; 'I' for Inactive)
REMARK    1  A    between atoms: C_2  and  C_3
REMARK    2  A    between atoms: N_13  and  C_14
REMARK    3  A    between atoms: C_14  and  C_15
REMARK    4  A    between atoms: C_19  and  N_21
REMARK                            x       y       z     vdW  Elec       q    Type
REMARK                         _______ _______ _______ _____ _____    ______ ____
ROOT
ATOM      1  C   UNL     1     -27.417 -13.371  20.246  0.00  0.00    +0.052 A 
ATOM      2  C   UNL     1     -28.423 -13.369  21.222  0.00  0.00    +0.021 A 
ATOM      3  C   UNL     1     -29.760 -13.190  20.854  0.00  0.00    +0.029 A 
ATOM      4  C   UNL     1     -30.100 -13.013  19.509  0.00  0.00    +0.073 A 
ATOM      5  N   UNL     1     -31.399 -12.837  19.149  0.00  0.00    -0.232 NA
ATOM      6  C   UNL     1     -31.777 -12.659  17.853  0.00  0.00    +0.120 A 
ATOM      7  C   UNL     1     -30.798 -12.663  16.844  0.00  0.00    +0.044 A 
ATOM      8  C   UNL     1     -29.454 -12.839  17.183  0.00  0.00    +0.013 A 
ATOM      9  C   UNL     1     -29.090 -13.016  18.523  0.00  0.00    +0.002 A 
ATOM     10  C   UNL     1     -27.750 -13.195  18.897  0.00  0.00    +0.029 A 
ATOM     11  N   UNL     1     -33.174 -12.477  17.560  0.00  0.00    -0.325 N 
ATOM     12  H   UNL     1     -33.855 -12.578  18.346  0.00  0.00    +0.148 HD
ENDROOT
BRANCH   1  14
ATOM     13  N   UNL     1     -24.938 -13.704  20.940  0.00  0.00    -0.191 NA
ATOM     14  C   UNL     1     -26.042 -13.556  20.631  0.00  0.00    +0.099 C 
ENDBRANCH   1  14
BRANCH  11  15
ATOM     15  C   UNL     1     -33.707 -12.102  16.249  0.00  0.00    +0.138 C 
BRANCH  15  16
ATOM     16  C   UNL     1     -34.085 -10.644  16.225  0.00  0.00    -0.028 A 
ATOM     17  C   UNL     1     -34.348  -9.996  15.008  0.00  0.00    +0.005 A 
ATOM     18  C   UNL     1     -34.703  -8.646  14.992  0.00  0.00    +0.003 A 
ATOM     19  C   UNL     1     -34.808  -7.933  16.188  0.00  0.00    +0.033 A 
ATOM     20  C   UNL     1     -34.562  -8.564  17.419  0.00  0.00    +0.127 A 
ATOM     21  C   UNL     1     -34.204  -9.927  17.427  0.00  0.00    +0.038 A 
BRANCH  20  22
ATOM     22  N   UNL     1     -34.675  -7.828  18.650  0.00  0.00    +0.056 N 
ATOM     23  O   UNL     1     -34.362  -8.422  19.851  0.00  0.00    -0.126 OA
ATOM     24  O   UNL     1     -35.062  -6.640  18.650  0.00  0.00    -0.126 OA
ENDBRANCH  20  22
ENDBRANCH  15  16
ENDBRANCH  11  15
TORSDOF 4
ENDMDL
MODEL 4
REMARK VINA RESULT:    -3.973      4.792      6.907
REMARK INTER + INTRA:          -5.231
REMARK INTER:                  -4.847
REMARK INTRA:                  -0.384
REMARK UNBOUND:                -0.330
REMARK  Name = 
REMARK  4 active torsions:
REMARK  status: ('A' for Active; 'I' for Inactive)
REMARK    1  A    between atoms: C_2  and  C_3
REMARK    2  A    between atoms: N_13  and  C_14
REMARK    3  A    between atoms: C_14  and  C_15
REMARK    4  A    between atoms: C_19  and  N_21
REMARK                            x       y       z     vdW  Elec       q    Type
REMARK                         _______ _______ _______ _____ _____    ______ ____
ROOT
ATOM      1  C   UNL     1     -29.550 -14.192  13.761  0.00  0.00    +0.052 A 
ATOM      2  C   UNL     1     -30.877 -13.888  13.428  0.00  0.00    +0.021 A 
ATOM      3  C   UNL     1     -31.759 -13.419  14.406  0.00  0.00    +0.029 A 
ATOM      4  C   UNL     1     -31.321 -13.251  15.723  0.00  0.00    +0.073 A 
ATOM      5  N   UNL     1     -32.177 -12.797  16.676  0.00  0.00    -0.232 NA
ATOM      6  C   UNL     1     -31.797 -12.620  17.972  0.00  0.00    +0.120 A 
ATOM      7  C   UNL     1     -30.471 -12.907  18.344  0.00  0.00    +0.044 A 
ATOM      8  C   UNL     1     -29.569 -13.377  17.388  0.00  0.00    +0.013 A 
ATOM      9  C   UNL     1     -29.985 -13.555  16.064  0.00  0.00    +0.002 A 
ATOM     10  C   UNL     1     -29.104 -14.025  15.079  0.00  0.00    +0.029 A 
ATOM     11  N   UNL     1     -32.768 -12.139  18.918  0.00  0.00    -0.325 N 
ATOM     12  H   UNL     1     -33.706 -11.858  18.553  0.00  0.00    +0.148 HD
ENDROOT
BRANCH   1  14
ATOM     13  N   UNL     1     -27.920 -15.062  11.938  0.00  0.00    -0.191 NA
ATOM     14  C   UNL     1     -28.646 -14.674  12.750  0.00  0.00    +0.099 C 
ENDBRANCH   1  14
BRANCH  11  15
ATOM     15  C   UNL     1     -32.556 -12.068  20.364  0.00  0.00    +0.138 C 
BRANCH  15  16
ATOM     16  C   UNL     1     -32.859 -10.685  20.880  0.00  0.00    -0.028 A 
ATOM     17  C   UNL     1     -34.048 -10.431  21.582  0.00  0.00    +0.005 A 
ATOM     18  C   UNL     1     -34.320  -9.149  22.062  0.00  0.00    +0.003 A 
ATOM     19  C   UNL     1     -33.409  -8.112  21.855  0.00  0.00    +0.033 A 
ATOM     20  C   UNL     1     -32.207  -8.346  21.166  0.00  0.00    +0.127 A 
ATOM     21  C   UNL     1     -31.938  -9.642  20.684  0.00  0.00    +0.038 A 
BRANCH  20  22
ATOM     22  N   UNL     1     -31.267  -7.277  20.958  0.00  0.00    +0.056 N 
ATOM     23  O   UNL     1     -31.516  -6.019  21.458  0.00  0.00    -0.126 OA
ATOM     24  O   UNL     1     -30.212  -7.469  20.317  0.00  0.00    -0.126 OA
ENDBRANCH  20  22
ENDBRANCH  15  16
ENDBRANCH  11  15
TORSDOF 4
ENDMDL
MODEL 5
REMARK VINA RESULT:    -3.907      1.555      2.217
REMARK INTER + INTRA:          -5.150
REMARK INTER:                  -4.764
REMARK INTRA:                  -0.386
REMARK UNBOUND:                -0.330
REMARK  Name = 
REMARK  4 active torsions:
REMARK  status: ('A' for Active; 'I' for Inactive)
REMARK    1  A    between atoms: C_2  and  C_3
REMARK    2  A    between atoms: N_13  and  C_14
REMARK    3  A    between atoms: C_14  and  C_15
REMARK    4  A    between atoms: C_19  and  N_21
REMARK                            x       y       z     vdW  Elec       q    Type
REMARK                         _______ _______ _______ _____ _____    ______ ____
ROOT
ATOM      1  C   UNL     1     -28.078 -13.147  20.267  0.00  0.00    +0.052 A 
ATOM      2  C   UNL     1     -27.417 -12.295  19.371  0.00  0.00    +0.021 A 
ATOM      3  C   UNL     1     -28.124 -11.292  18.701  0.00  0.00    +0.029 A 
ATOM      4  C   UNL     1     -29.496 -11.134  18.923  0.00  0.00    +0.073 A 
ATOM      5  N   UNL     1     -30.186 -10.161  18.271  0.00  0.00    -0.232 NA
ATOM      6  C   UNL     1     -31.523  -9.971  18.452  0.00  0.00    +0.120 A 
ATOM      7  C   UNL     1     -32.220 -10.801  19.348  0.00  0.00    +0.044 A 
ATOM      8  C   UNL     1     -31.539 -11.810  20.031  0.00  0.00    +0.013 A 
ATOM      9  C   UNL     1     -30.166 -11.989  19.824  0.00  0.00    +0.002 A 
ATOM     10  C   UNL     1     -29.452 -12.994  20.494  0.00  0.00    +0.029 A 
ATOM     11  N   UNL     1     -32.176  -8.919  17.720  0.00  0.00    -0.325 N 
ATOM     12  H   UNL     1     -31.581  -8.283  17.143  0.00  0.00    +0.148 HD
ENDROOT
BRANCH   1  14
ATOM     13  N   UNL     1     -26.755 -15.006  21.506  0.00  0.00    -0.191 NA
ATOM     14  C   UNL     1     -27.344 -14.178  20.954  0.00  0.00    +0.099 C 
ENDBRANCH   1  14
BRANCH  11  15
ATOM     15  C   UNL     1     -33.625  -8.711  17.678  0.00  0.00    +0.138 C 
BRANCH  15  16
ATOM     16  C   UNL     1     -34.132  -8.780  16.261  0.00  0.00    -0.028 A 
ATOM     17  C   UNL     1     -34.578  -7.622  15.606  0.00  0.00    +0.005 A 
ATOM     18  C   UNL     1     -35.042  -7.692  14.292  0.00  0.00    +0.003 A 
ATOM     19  C   UNL     1     -35.057  -8.913  13.615  0.00  0.00    +0.033 A 
ATOM     20  C   UNL     1     -34.603 -10.083  14.246  0.00  0.00    +0.127 A 
ATOM     21  C   UNL     1     -34.137 -10.005  15.573  0.00  0.00    +0.038 A 
BRANCH  20  22
ATOM     22  N   UNL     1     -34.615 -11.340  13.545  0.00  0.00    +0.056 N 
ATOM     23  O   UNL     1     -34.626 -11.373  12.170  0.00  0.00    -0.126 OA
ATOM     24  O   UNL     1     -34.619 -12.420  14.172  0.00  0.00    -0.126 OA
ENDBRANCH  20  22
ENDBRANCH  15  16
ENDBRANCH  11  15
TORSDOF 4
ENDMDL
MODEL 6
REMARK VINA RESULT:    -3.803      3.395      5.455
REMARK INTER + INTRA:          -5.022
REMARK INTER:                  -4.646
REMARK INTRA:                  -0.377
REMARK UNBOUND:                -0.330
REMARK  Name = 
REMARK  4 active torsions:
REMARK  status: ('A' for Active; 'I' for Inactive)
REMARK    1  A    between atoms: C_2  and  C_3
REMARK    2  A    between atoms: N_13  and  C_14
REMARK    3  A    between atoms: C_14  and  C_15
REMARK    4  A    between atoms: C_19  and  N_21
REMARK                            x       y       z     vdW  Elec       q    Type
REMARK                         _______ _______ _______ _____ _____    ______ ____
ROOT
ATOM      1  C   UNL     1     -32.077  -7.578  19.910  0.00  0.00    +0.052 A 
ATOM      2  C   UNL     1     -33.301  -8.020  19.390  0.00  0.00    +0.021 A 
ATOM      3  C   UNL     1     -33.395  -9.273  18.777  0.00  0.00    +0.029 A 
ATOM      4  C   UNL     1     -32.265 -10.092  18.681  0.00  0.00    +0.073 A 
ATOM      5  N   UNL     1     -32.352 -11.310  18.083  0.00  0.00    -0.232 NA
ATOM      6  C   UNL     1     -31.280 -12.141  17.963  0.00  0.00    +0.120 A 
ATOM      7  C   UNL     1     -30.036 -11.736  18.479  0.00  0.00    +0.044 A 
ATOM      8  C   UNL     1     -29.914 -10.489  19.096  0.00  0.00    +0.013 A 
ATOM      9  C   UNL     1     -31.030  -9.652  19.203  0.00  0.00    +0.002 A 
ATOM     10  C   UNL     1     -30.941  -8.393  19.817  0.00  0.00    +0.029 A 
ATOM     11  N   UNL     1     -31.459 -13.412  17.314  0.00  0.00    -0.325 N 
ATOM     12  H   UNL     1     -32.429 -13.686  17.039  0.00  0.00    +0.148 HD
ENDROOT
BRANCH   1  14
ATOM     13  N   UNL     1     -31.915  -5.249  21.047  0.00  0.00    -0.191 NA
ATOM     14  C   UNL     1     -31.987  -6.286  20.540  0.00  0.00    +0.099 C 
ENDBRANCH   1  14
BRANCH  11  15
ATOM     15  C   UNL     1     -30.372 -14.326  16.958  0.00  0.00    +0.138 C 
BRANCH  15  16
ATOM     16  C   UNL     1     -30.176 -14.364  15.465  0.00  0.00    -0.028 A 
ATOM     17  C   UNL     1     -29.049 -14.991  14.911  0.00  0.00    +0.005 A 
ATOM     18  C   UNL     1     -28.876 -15.028  13.526  0.00  0.00    +0.003 A 
ATOM     19  C   UNL     1     -29.827 -14.451  12.682  0.00  0.00    +0.033 A 
ATOM     20  C   UNL     1     -30.969 -13.831  13.215  0.00  0.00    +0.127 A 
ATOM     21  C   UNL     1     -31.137 -13.796  14.613  0.00  0.00    +0.038 A 
BRANCH  20  22
ATOM     22  N   UNL     1     -31.950 -13.240  12.343  0.00  0.00    +0.056 N 
ATOM     23  O   UNL     1     -33.049 -13.961  11.938  0.00  0.00    -0.126 OA
ATOM     24  O   UNL     1     -31.820 -12.066  11.938  0.00  0.00    -0.126 OA
ENDBRANCH  20  22
ENDBRANCH  15  16
ENDBRANCH  11  15
TORSDOF 4
ENDMDL
MODEL 7
REMARK VINA RESULT:    -3.564      4.374      6.629
REMARK INTER + INTRA:          -4.727
REMARK INTER:                  -4.247
REMARK INTRA:                  -0.480
REMARK UNBOUND:                -0.330
REMARK  Name = 
REMARK  4 active torsions:
REMARK  status: ('A' for Active; 'I' for Inactive)
REMARK    1  A    between atoms: C_2  and  C_3
REMARK    2  A    between atoms: N_13  and  C_14
REMARK    3  A    between atoms: C_14  and  C_15
REMARK    4  A    between atoms: C_19  and  N_21
REMARK                            x       y       z     vdW  Elec       q    Type
REMARK                         _______ _______ _______ _____ _____    ______ ____
ROOT
ATOM      1  C   UNL     1     -30.120 -14.236  14.384  0.00  0.00    +0.052 A 
ATOM      2  C   UNL     1     -29.078 -14.420  15.303  0.00  0.00    +0.021 A 
ATOM      3  C   UNL     1     -29.217 -13.977  16.622  0.00  0.00    +0.029 A 
ATOM      4  C   UNL     1     -30.397 -13.348  17.030  0.00  0.00    +0.073 A 
ATOM      5  N   UNL     1     -30.534 -12.914  18.311  0.00  0.00    -0.232 NA
ATOM      6  C   UNL     1     -31.663 -12.294  18.754  0.00  0.00    +0.120 A 
ATOM      7  C   UNL     1     -32.733 -12.098  17.863  0.00  0.00    +0.044 A 
ATOM      8  C   UNL     1     -32.622 -12.530  16.540  0.00  0.00    +0.013 A 
ATOM      9  C   UNL     1     -31.450 -13.161  16.108  0.00  0.00    +0.002 A 
ATOM     10  C   UNL     1     -31.306 -13.607  14.786  0.00  0.00    +0.029 A 
ATOM     11  N   UNL     1     -31.723 -11.864  20.125  0.00  0.00    -0.325 N 
ATOM     12  H   UNL     1     -30.930 -12.125  20.753  0.00  0.00    +0.148 HD
ENDROOT
BRANCH   1  14
ATOM     13  N   UNL     1     -29.852 -15.062  11.938  0.00  0.00    -0.191 NA
ATOM     14  C   UNL     1     -29.971 -14.695  13.027  0.00  0.00    +0.099 C 
ENDBRANCH   1  14
BRANCH  11  15
ATOM     15  C   UNL     1     -32.789 -11.036  20.691  0.00  0.00    +0.138 C 
BRANCH  15  16
ATOM     16  C   UNL     1     -32.383  -9.585  20.710  0.00  0.00    -0.028 A 
ATOM     17  C   UNL     1     -31.318  -9.154  21.517  0.00  0.00    +0.005 A 
ATOM     18  C   UNL     1     -30.944  -7.809  21.526  0.00  0.00    +0.003 A 
ATOM     19  C   UNL     1     -31.619  -6.885  20.727  0.00  0.00    +0.033 A 
ATOM     20  C   UNL     1     -32.680  -7.297  19.903  0.00  0.00    +0.127 A 
ATOM     21  C   UNL     1     -33.053  -8.655  19.898  0.00  0.00    +0.038 A 
BRANCH  20  22
ATOM     22  N   UNL     1     -33.372  -6.343  19.077  0.00  0.00    +0.056 N 
ATOM     23  O   UNL     1     -32.981  -5.024  19.054  0.00  0.00    -0.126 OA
ATOM     24  O   UNL     1     -34.339  -6.694  18.369  0.00  0.00    -0.126 OA
ENDBRANCH  20  22
ENDBRANCH  15  16
ENDBRANCH  11  15
TORSDOF 4
ENDMDL
