MODEL 1
REMARK VINA RESULT:    -4.473      0.000      0.000
REMARK INTER + INTRA:          -7.586
REMARK INTER:                  -6.173
REMARK INTRA:                  -1.413
REMARK UNBOUND:                -1.413
REMARK  Name = 
REMARK  9 active torsions:
REMARK  status: ('A' for Active; 'I' for Inactive)
REMARK    1  A    between atoms: C_1  and  C_2
REMARK    2  A    between atoms: C_2  and  C_3
REMARK    3  A    between atoms: C_5  and  C_6
REMARK    4  A    between atoms: C_7  and  C_9
REMARK    5  A    between atoms: N_11  and  C_12
REMARK    6  A    between atoms: C_12  and  C_13
REMARK    7  A    between atoms: C_12  and  C_17
REMARK    8  A    between atoms: C_13  and  C_14
REMARK    9  A    between atoms: C_14  and  O_16
REMARK                            x       y       z     vdW  Elec       q    Type
REMARK                         _______ _______ _______ _____ _____    ______ ____
ROOT
ATOM      1  C   UNL     1     -31.650 -13.241  16.775  0.00  0.00    +0.280 C 
ATOM      2  O   UNL     1     -32.482 -14.001  17.340  0.00  0.00    -0.267 OA
ATOM      3  N   UNL     1     -31.010 -12.198  17.525  0.00  0.00    -0.301 N 
ATOM      4  H   UNL     1     -30.546 -11.419  17.008  0.00  0.00    +0.150 HD
ENDROOT
BRANCH   1   9
ATOM      5  C   UNL     1     -31.754 -13.337  13.230  0.00  0.00    +0.106 A 
ATOM      6  C   UNL     1     -30.518 -13.939  13.365  0.00  0.00    +0.048 A 
ATOM      7  C   UNL     1     -30.288 -14.005  14.725  0.00  0.00    +0.000 A 
ATOM      8  C   UNL     1     -29.089 -14.628  15.368  0.00  0.00    +0.048 C 
ATOM      9  C   UNL     1     -31.393 -13.422  15.334  0.00  0.00    +0.192 A 
ATOM     10  O   UNL     1     -32.252 -13.050  14.411  0.00  0.00    -0.455 OA
BRANCH   5  12
ATOM     11  C   UNL     1     -33.903 -12.652  12.195  0.00  0.00    +0.012 C 
ATOM     12  C   UNL     1     -32.463 -13.080  11.939  0.00  0.00    +0.071 C 
ENDBRANCH   5  12
ENDBRANCH   1   9
BRANCH   3  13
ATOM     13  C   UNL     1     -31.066 -12.153  18.990  0.00  0.00    +0.121 C 
BRANCH  13  14
ATOM     14  C   UNL     1     -29.759 -12.634  19.561  0.00  0.00    +0.011 A 
ATOM     15  C   UNL     1     -29.553 -13.122  20.846  0.00  0.00    +0.013 A 
ATOM     16  C   UNL     1     -28.229 -13.506  21.084  0.00  0.00    +0.008 A 
ATOM     17  C   UNL     1     -27.390 -13.325  19.991  0.00  0.00    +0.045 A 
ATOM     18  S   UNL     1     -28.300 -12.689  18.727  0.00  0.00    -0.100 S 
ENDBRANCH  13  14
BRANCH  13  19
ATOM     19  C   UNL     1     -31.387 -10.724  19.471  0.00  0.00    +0.148 C 
BRANCH  19  20
ATOM     20  C   UNL     1     -30.418  -9.726  18.916  0.00  0.00    +0.307 C 
ATOM     21  O   UNL     1     -30.287  -9.598  17.668  0.00  0.00    -0.251 OA
BRANCH  20  22
ATOM     22  O   UNL     1     -29.633  -8.967  19.779  0.00  0.00    -0.481 OA
ATOM     23  H   UNL     1     -28.627  -8.932  19.671  0.00  0.00    +0.295 HD
ENDBRANCH  20  22
ENDBRANCH  19  20
ENDBRANCH  13  19
ENDBRANCH   3  13
TORSDOF 7
ENDMDL
MODEL 2
REMARK VINA RESULT:    -4.440      2.541      3.815
REMARK INTER + INTRA:          -7.539
REMARK INTER:                  -6.232
REMARK INTRA:                  -1.307
REMARK UNBOUND:                -1.413
REMARK  Name = 
REMARK  9 active torsions:
REMARK  status: ('A' for Active; 'I' for Inactive)
REMARK    1  A    between atoms: C_1  and  C_2
REMARK    2  A    between atoms: C_2  and  C_3
REMARK    3  A    between atoms: C_5  and  C_6
REMARK    4  A    between atoms: C_7  and  C_9
REMARK    5  A    between atoms: N_11  and  C_12
REMARK    6  A    between atoms: C_12  and  C_13
REMARK    7  A    between atoms: C_12  and  C_17
REMARK    8  A    between atoms: C_13  and  C_14
REMARK    9  A    between atoms: C_14  and  O_16
REMARK                            x       y       z     vdW  Elec       q    Type
REMARK                         _______ _______ _______ _____ _____    ______ ____
ROOT
ATOM      1  C   UNL     1     -30.582 -10.401  16.471  0.00  0.00    +0.280 C 
ATOM      2  O   UNL     1     -30.203  -9.202  16.381  0.00  0.00    -0.267 OA
ATOM      3  N   UNL     1     -30.060 -11.240  17.512  0.00  0.00    -0.301 N 
ATOM      4  H   UNL     1     -30.159 -12.275  17.421  0.00  0.00    +0.150 HD
ENDROOT
BRANCH   1   9
ATOM      5  C   UNL     1     -32.235 -12.122  13.846  0.00  0.00    +0.106 A 
ATOM      6  C   UNL     1     -33.292 -11.298  14.180  0.00  0.00    +0.048 A 
ATOM      7  C   UNL     1     -32.831 -10.513  15.218  0.00  0.00    +0.000 A 
ATOM      8  C   UNL     1     -33.610  -9.423  15.886  0.00  0.00    +0.048 C 
ATOM      9  C   UNL     1     -31.525 -10.921  15.463  0.00  0.00    +0.192 A 
ATOM     10  O   UNL     1     -31.201 -11.871  14.615  0.00  0.00    -0.455 OA
BRANCH   5  12
ATOM     11  C   UNL     1     -33.522 -13.054  11.939  0.00  0.00    +0.012 C 
ATOM     12  C   UNL     1     -32.230 -13.131  12.742  0.00  0.00    +0.071 C 
ENDBRANCH   5  12
ENDBRANCH   1   9
BRANCH   3  13
ATOM     13  C   UNL     1     -29.319 -10.688  18.651  0.00  0.00    +0.121 C 
BRANCH  13  14
ATOM     14  C   UNL     1     -30.281 -10.308  19.744  0.00  0.00    +0.011 A 
ATOM     15  C   UNL     1     -31.068 -11.182  20.487  0.00  0.00    +0.013 A 
ATOM     16  C   UNL     1     -31.856 -10.534  21.444  0.00  0.00    +0.008 A 
ATOM     17  C   UNL     1     -31.694  -9.154  21.461  0.00  0.00    +0.045 A 
ATOM     18  S   UNL     1     -30.565  -8.742  20.283  0.00  0.00    -0.100 S 
ENDBRANCH  13  14
BRANCH  13  19
ATOM     19  C   UNL     1     -28.279 -11.705  19.159  0.00  0.00    +0.148 C 
BRANCH  19  20
ATOM     20  C   UNL     1     -28.442 -13.038  18.494  0.00  0.00    +0.307 C 
ATOM     21  O   UNL     1     -28.010 -13.218  17.323  0.00  0.00    -0.251 OA
BRANCH  20  22
ATOM     22  O   UNL     1     -29.106 -14.066  19.155  0.00  0.00    -0.481 OA
ATOM     23  H   UNL     1     -29.275 -14.018  20.152  0.00  0.00    +0.295 HD
ENDBRANCH  20  22
ENDBRANCH  19  20
ENDBRANCH  13  19
ENDBRANCH   3  13
TORSDOF 7
ENDMDL
MODEL 3
REMARK VINA RESULT:    -4.200      2.259      3.316
REMARK INTER + INTRA:          -7.209
REMARK INTER:                  -6.046
REMARK INTRA:                  -1.163
REMARK UNBOUND:                -1.413
REMARK  Name = 
REMARK  9 active torsions:
REMARK  status: ('A' for Active; 'I' for Inactive)
REMARK    1  A    between atoms: C_1  and  C_2
REMARK    2  A    between atoms: C_2  and  C_3
REMARK    3  A    between atoms: C_5  and  C_6
REMARK    4  A    between atoms: C_7  and  C_9
REMARK    5  A    between atoms: N_11  and  C_12
REMARK    6  A    between atoms: C_12  and  C_13
REMARK    7  A    between atoms: C_12  and  C_17
REMARK    8  A    between atoms: C_13  and  C_14
REMARK    9  A    between atoms: C_14  and  O_16
REMARK                            x       y       z     vdW  Elec       q    Type
REMARK                         _______ _______ _______ _____ _____    ______ ____
ROOT
ATOM      1  C   UNL     1     -30.421 -11.057  16.689  0.00  0.00    +0.280 C 
ATOM      2  O   UNL     1     -30.175  -9.832  16.519  0.00  0.00    -0.267 OA
ATOM      3  N   UNL     1     -30.045 -11.696  17.918  0.00  0.00    -0.301 N 
ATOM      4  H   UNL     1     -29.999 -12.739  17.949  0.00  0.00    +0.150 HD
ENDROOT
BRANCH   1   9
ATOM      5  C   UNL     1     -32.422 -12.234  14.007  0.00  0.00    +0.106 A 
ATOM      6  C   UNL     1     -31.601 -13.341  14.086  0.00  0.00    +0.048 A 
ATOM      7  C   UNL     1     -30.722 -13.075  15.116  0.00  0.00    +0.000 A 
ATOM      8  C   UNL     1     -29.666 -14.012  15.613  0.00  0.00    +0.048 C 
ATOM      9  C   UNL     1     -31.052 -11.811  15.591  0.00  0.00    +0.192 A 
ATOM     10  O   UNL     1     -32.080 -11.348  14.915  0.00  0.00    -0.455 OA
BRANCH   5  12
ATOM     11  C   UNL     1     -33.498 -13.087  11.940  0.00  0.00    +0.012 C 
ATOM     12  C   UNL     1     -33.570 -12.063  13.065  0.00  0.00    +0.071 C 
ENDBRANCH   5  12
ENDBRANCH   1   9
BRANCH   3  13
ATOM     13  C   UNL     1     -29.642 -10.926  19.100  0.00  0.00    +0.121 C 
BRANCH  13  14
ATOM     14  C   UNL     1     -30.858 -10.583  19.918  0.00  0.00    +0.011 A 
ATOM     15  C   UNL     1     -31.636 -11.475  20.648  0.00  0.00    +0.013 A 
ATOM     16  C   UNL     1     -32.697 -10.858  21.319  0.00  0.00    +0.008 A 
ATOM     17  C   UNL     1     -32.758  -9.483  21.124  0.00  0.00    +0.045 A 
ATOM     18  S   UNL     1     -31.488  -9.037  20.116  0.00  0.00    -0.100 S 
ENDBRANCH  13  14
BRANCH  13  19
ATOM     19  C   UNL     1     -28.619 -11.719  19.935  0.00  0.00    +0.148 C 
BRANCH  19  20
ATOM     20  C   UNL     1     -27.537 -12.298  19.076  0.00  0.00    +0.307 C 
ATOM     21  O   UNL     1     -26.471 -11.654  18.882  0.00  0.00    -0.251 OA
BRANCH  20  22
ATOM     22  O   UNL     1     -27.726 -13.531  18.459  0.00  0.00    -0.481 OA
ATOM     23  H   UNL     1     -27.226 -13.770  17.612  0.00  0.00    +0.295 HD
ENDBRANCH  20  22
ENDBRANCH  19  20
ENDBRANCH  13  19
ENDBRANCH   3  13
TORSDOF 7
ENDMDL
MODEL 4
REMARK VINA RESULT:    -4.031      2.362      6.440
REMARK INTER + INTRA:          -6.975
REMARK INTER:                  -5.648
REMARK INTRA:                  -1.327
REMARK UNBOUND:                -1.413
REMARK  Name = 
REMARK  9 active torsions:
REMARK  status: ('A' for Active; 'I' for Inactive)
REMARK    1  A    between atoms: C_1  and  C_2
REMARK    2  A    between atoms: C_2  and  C_3
REMARK    3  A    between atoms: C_5  and  C_6
REMARK    4  A    between atoms: C_7  and  C_9
REMARK    5  A    between atoms: N_11  and  C_12
REMARK    6  A    between atoms: C_12  and  C_13
REMARK    7  A    between atoms: C_12  and  C_17
REMARK    8  A    between atoms: C_13  and  C_14
REMARK    9  A    between atoms: C_14  and  O_16
REMARK                            x       y       z     vdW  Elec       q    Type
REMARK                         _______ _______ _______ _____ _____    ______ ____
ROOT
ATOM      1  C   UNL     1     -28.875 -11.183  18.469  0.00  0.00    +0.280 C 
ATOM      2  O   UNL     1     -27.995 -10.435  17.963  0.00  0.00    -0.267 OA
ATOM      3  N   UNL     1     -30.215 -11.158  17.956  0.00  0.00    -0.301 N 
ATOM      4  H   UNL     1     -30.984 -11.559  18.537  0.00  0.00    +0.150 HD
ENDROOT
BRANCH   1   9
ATOM      5  C   UNL     1     -27.470 -13.553  20.703  0.00  0.00    +0.106 A 
ATOM      6  C   UNL     1     -28.369 -13.009  21.599  0.00  0.00    +0.048 A 
ATOM      7  C   UNL     1     -29.046 -12.034  20.895  0.00  0.00    +0.000 A 
ATOM      8  C   UNL     1     -30.164 -11.199  21.436  0.00  0.00    +0.048 C 
ATOM      9  C   UNL     1     -28.505 -12.034  19.615  0.00  0.00    +0.192 A 
ATOM     10  O   UNL     1     -27.578 -12.963  19.535  0.00  0.00    -0.455 OA
BRANCH   5  12
ATOM     11  C   UNL     1     -25.101 -14.288  20.637  0.00  0.00    +0.012 C 
ATOM     12  C   UNL     1     -26.531 -14.682  20.985  0.00  0.00    +0.071 C 
ENDBRANCH   5  12
ENDBRANCH   1   9
BRANCH   3  13
ATOM     13  C   UNL     1     -30.544 -10.510  16.682  0.00  0.00    +0.121 C 
BRANCH  13  14
ATOM     14  C   UNL     1     -31.003 -11.546  15.692  0.00  0.00    +0.011 A 
ATOM     15  C   UNL     1     -31.918 -11.352  14.663  0.00  0.00    +0.013 A 
ATOM     16  C   UNL     1     -32.136 -12.502  13.896  0.00  0.00    +0.008 A 
ATOM     17  C   UNL     1     -31.396 -13.601  14.314  0.00  0.00    +0.045 A 
ATOM     18  S   UNL     1     -30.468 -13.138  15.639  0.00  0.00    -0.100 S 
ENDBRANCH  13  14
BRANCH  13  19
ATOM     19  C   UNL     1     -31.623  -9.429  16.892  0.00  0.00    +0.148 C 
BRANCH  19  20
ATOM     20  C   UNL     1     -31.975  -9.277  18.340  0.00  0.00    +0.307 C 
ATOM     21  O   UNL     1     -31.354  -8.448  19.058  0.00  0.00    -0.251 OA
BRANCH  20  22
ATOM     22  O   UNL     1     -32.963 -10.080  18.901  0.00  0.00    -0.481 OA
ATOM     23  H   UNL     1     -32.938 -11.087  18.793  0.00  0.00    +0.295 HD
ENDBRANCH  20  22
ENDBRANCH  19  20
ENDBRANCH  13  19
ENDBRANCH   3  13
TORSDOF 7
ENDMDL
MODEL 5
REMARK VINA RESULT:    -3.981      1.092      2.089
REMARK INTER + INTRA:          -6.907
REMARK INTER:                  -5.569
REMARK INTRA:                  -1.338
REMARK UNBOUND:                -1.413
REMARK  Name = 
REMARK  9 active torsions:
REMARK  status: ('A' for Active; 'I' for Inactive)
REMARK    1  A    between atoms: C_1  and  C_2
REMARK    2  A    between atoms: C_2  and  C_3
REMARK    3  A    between atoms: C_5  and  C_6
REMARK    4  A    between atoms: C_7  and  C_9
REMARK    5  A    between atoms: N_11  and  C_12
REMARK    6  A    between atoms: C_12  and  C_13
REMARK    7  A    between atoms: C_12  and  C_17
REMARK    8  A    between atoms: C_13  and  C_14
REMARK    9  A    between atoms: C_14  and  O_16
REMARK                            x       y       z     vdW  Elec       q    Type
REMARK                         _______ _______ _______ _____ _____    ______ ____
ROOT
ATOM      1  C   UNL     1     -31.364 -13.458  16.923  0.00  0.00    +0.280 C 
ATOM      2  O   UNL     1     -32.050 -14.346  17.497  0.00  0.00    -0.267 OA
ATOM      3  N   UNL     1     -30.863 -12.344  17.677  0.00  0.00    -0.301 N 
ATOM      4  H   UNL     1     -30.541 -11.494  17.164  0.00  0.00    +0.150 HD
ENDROOT
BRANCH   1   9
ATOM      5  C   UNL     1     -30.283 -14.283  13.647  0.00  0.00    +0.106 A 
ATOM      6  C   UNL     1     -31.188 -13.310  13.271  0.00  0.00    +0.048 A 
ATOM      7  C   UNL     1     -31.732 -12.840  14.449  0.00  0.00    +0.000 A 
ATOM      8  C   UNL     1     -32.733 -11.732  14.554  0.00  0.00    +0.048 C 
ATOM      9  C   UNL     1     -31.136 -13.569  15.471  0.00  0.00    +0.192 A 
ATOM     10  O   UNL     1     -30.267 -14.409  14.954  0.00  0.00    -0.455 OA
BRANCH   5  12
ATOM     11  C   UNL     1     -27.940 -14.700  12.941  0.00  0.00    +0.012 C 
ATOM     12  C   UNL     1     -29.404 -15.062  12.722  0.00  0.00    +0.071 C 
ENDBRANCH   5  12
ENDBRANCH   1   9
BRANCH   3  13
ATOM     13  C   UNL     1     -30.871 -12.336  19.144  0.00  0.00    +0.121 C 
BRANCH  13  14
ATOM     14  C   UNL     1     -29.518 -12.747  19.659  0.00  0.00    +0.011 A 
ATOM     15  C   UNL     1     -29.235 -13.234  20.930  0.00  0.00    +0.013 A 
ATOM     16  C   UNL     1     -27.883 -13.544  21.113  0.00  0.00    +0.008 A 
ATOM     17  C   UNL     1     -27.099 -13.306  19.991  0.00  0.00    +0.045 A 
ATOM     18  S   UNL     1     -28.092 -12.711  18.771  0.00  0.00    -0.100 S 
ENDBRANCH  13  14
BRANCH  13  19
ATOM     19  C   UNL     1     -31.264 -10.943  19.671  0.00  0.00    +0.148 C 
BRANCH  19  20
ATOM     20  C   UNL     1     -30.433  -9.864  19.047  0.00  0.00    +0.307 C 
ATOM     21  O   UNL     1     -30.458  -9.688  17.799  0.00  0.00    -0.251 OA
BRANCH  20  22
ATOM     22  O   UNL     1     -29.603  -9.080  19.843  0.00  0.00    -0.481 OA
ATOM     23  H   UNL     1     -29.645  -8.070  19.800  0.00  0.00    +0.295 HD
ENDBRANCH  20  22
ENDBRANCH  19  20
ENDBRANCH  13  19
ENDBRANCH   3  13
TORSDOF 7
ENDMDL
MODEL 6
REMARK VINA RESULT:    -3.968      2.566      6.796
REMARK INTER + INTRA:          -6.888
REMARK INTER:                  -5.958
REMARK INTRA:                  -0.930
REMARK UNBOUND:                -1.413
REMARK  Name = 
REMARK  9 active torsions:
REMARK  status: ('A' for Active; 'I' for Inactive)
REMARK    1  A    between atoms: C_1  and  C_2
REMARK    2  A    between atoms: C_2  and  C_3
REMARK    3  A    between atoms: C_5  and  C_6
REMARK    4  A    between atoms: C_7  and  C_9
REMARK    5  A    between atoms: N_11  and  C_12
REMARK    6  A    between atoms: C_12  and  C_13
REMARK    7  A    between atoms: C_12  and  C_17
REMARK    8  A    between atoms: C_13  and  C_14
REMARK    9  A    between atoms: C_14  and  O_16
REMARK                            x       y       z     vdW  Elec       q    Type
REMARK                         _______ _______ _______ _____ _____    ______ ____
ROOT
ATOM      1  C   UNL     1     -30.522 -13.341  19.354  0.00  0.00    +0.280 C 
ATOM      2  O   UNL     1     -31.722 -13.123  19.670  0.00  0.00    -0.267 OA
ATOM      3  N   UNL     1     -30.202 -13.783  18.026  0.00  0.00    -0.301 N 
ATOM      4  H   UNL     1     -29.268 -14.216  17.852  0.00  0.00    +0.150 HD
ENDROOT
BRANCH   1   9
ATOM      5  C   UNL     1     -27.732 -13.629  21.526  0.00  0.00    +0.106 A 
ATOM      6  C   UNL     1     -28.226 -12.456  22.062  0.00  0.00    +0.048 A 
ATOM      7  C   UNL     1     -29.361 -12.167  21.331  0.00  0.00    +0.000 A 
ATOM      8  C   UNL     1     -30.273 -11.007  21.579  0.00  0.00    +0.048 C 
ATOM      9  C   UNL     1     -29.479 -13.176  20.383  0.00  0.00    +0.192 A 
ATOM     10  O   UNL     1     -28.498 -14.037  20.540  0.00  0.00    -0.455 OA
BRANCH   5  12
ATOM     11  C   UNL     1     -25.431 -14.361  20.952  0.00  0.00    +0.012 C 
ATOM     12  C   UNL     1     -26.528 -14.372  22.009  0.00  0.00    +0.071 C 
ENDBRANCH   5  12
ENDBRANCH   1   9
BRANCH   3  13
ATOM     13  C   UNL     1     -31.179 -13.723  16.934  0.00  0.00    +0.121 C 
BRANCH  13  14
ATOM     14  C   UNL     1     -31.293 -12.308  16.436  0.00  0.00    +0.011 A 
ATOM     15  C   UNL     1     -32.245 -11.823  15.546  0.00  0.00    +0.013 A 
ATOM     16  C   UNL     1     -32.105 -10.457  15.280  0.00  0.00    +0.008 A 
ATOM     17  C   UNL     1     -31.047  -9.861  15.956  0.00  0.00    +0.045 A 
ATOM     18  S   UNL     1     -30.289 -11.038  16.888  0.00  0.00    -0.100 S 
ENDBRANCH  13  14
BRANCH  13  19
ATOM     19  C   UNL     1     -30.771 -14.679  15.795  0.00  0.00    +0.148 C 
BRANCH  19  20
ATOM     20  C   UNL     1     -29.374 -14.411  15.325  0.00  0.00    +0.307 C 
ATOM     21  O   UNL     1     -29.169 -14.014  14.146  0.00  0.00    -0.251 OA
BRANCH  20  22
ATOM     22  O   UNL     1     -28.300 -14.638  16.179  0.00  0.00    -0.481 OA
ATOM     23  H   UNL     1     -27.676 -15.422  16.032  0.00  0.00    +0.295 HD
ENDBRANCH  20  22
ENDBRANCH  19  20
ENDBRANCH  13  19
ENDBRANCH   3  13
TORSDOF 7
ENDMDL
MODEL 7
REMARK VINA RESULT:    -3.833      1.794      2.268
REMARK INTER + INTRA:          -6.702
REMARK INTER:                  -5.445
REMARK INTRA:                  -1.257
REMARK UNBOUND:                -1.413
REMARK  Name = 
REMARK  9 active torsions:
REMARK  status: ('A' for Active; 'I' for Inactive)
REMARK    1  A    between atoms: C_1  and  C_2
REMARK    2  A    between atoms: C_2  and  C_3
REMARK    3  A    between atoms: C_5  and  C_6
REMARK    4  A    between atoms: C_7  and  C_9
REMARK    5  A    between atoms: N_11  and  C_12
REMARK    6  A    between atoms: C_12  and  C_13
REMARK    7  A    between atoms: C_12  and  C_17
REMARK    8  A    between atoms: C_13  and  C_14
REMARK    9  A    between atoms: C_14  and  O_16
REMARK                            x       y       z     vdW  Elec       q    Type
REMARK                         _______ _______ _______ _____ _____    ______ ____
ROOT
ATOM      1  C   UNL     1     -31.811 -12.267  18.096  0.00  0.00    +0.280 C 
ATOM      2  O   UNL     1     -32.863 -12.559  18.726  0.00  0.00    -0.267 OA
ATOM      3  N   UNL     1     -30.554 -12.217  18.788  0.00  0.00    -0.301 N 
ATOM      4  H   UNL     1     -29.753 -11.720  18.340  0.00  0.00    +0.150 HD
ENDROOT
BRANCH   1   9
ATOM      5  C   UNL     1     -32.474 -12.160  14.613  0.00  0.00    +0.106 A 
ATOM      6  C   UNL     1     -31.743 -10.990  14.668  0.00  0.00    +0.048 A 
ATOM      7  C   UNL     1     -31.370 -10.850  15.990  0.00  0.00    +0.000 A 
ATOM      8  C   UNL     1     -30.514  -9.750  16.533  0.00  0.00    +0.048 C 
ATOM      9  C   UNL     1     -31.914 -11.938  16.663  0.00  0.00    +0.192 A 
ATOM     10  O   UNL     1     -32.552 -12.704  15.806  0.00  0.00    -0.455 OA
BRANCH   5  12
ATOM     11  C   UNL     1     -32.020 -12.854  12.274  0.00  0.00    +0.012 C 
ATOM     12  C   UNL     1     -33.064 -12.764  13.379  0.00  0.00    +0.071 C 
ENDBRANCH   5  12
ENDBRANCH   1   9
BRANCH   3  13
ATOM     13  C   UNL     1     -30.392 -12.767  20.138  0.00  0.00    +0.121 C 
BRANCH  13  14
ATOM     14  C   UNL     1     -28.949 -13.128  20.366  0.00  0.00    +0.011 A 
ATOM     15  C   UNL     1     -28.442 -13.853  21.439  0.00  0.00    +0.013 A 
ATOM     16  C   UNL     1     -27.058 -14.043  21.370  0.00  0.00    +0.008 A 
ATOM     17  C   UNL     1     -26.470 -13.472  20.248  0.00  0.00    +0.045 A 
ATOM     18  S   UNL     1     -27.678 -12.733  19.339  0.00  0.00    -0.100 S 
ENDBRANCH  13  14
BRANCH  13  19
ATOM     19  C   UNL     1     -30.881 -11.755  21.193  0.00  0.00    +0.148 C 
BRANCH  19  20
ATOM     20  C   UNL     1     -30.159 -10.448  21.078  0.00  0.00    +0.307 C 
ATOM     21  O   UNL     1     -30.346  -9.708  20.074  0.00  0.00    -0.251 OA
BRANCH  20  22
ATOM     22  O   UNL     1     -29.252 -10.068  22.062  0.00  0.00    -0.481 OA
ATOM     23  H   UNL     1     -29.531  -9.454  22.817  0.00  0.00    +0.295 HD
ENDBRANCH  20  22
ENDBRANCH  19  20
ENDBRANCH  13  19
ENDBRANCH   3  13
TORSDOF 7
ENDMDL
MODEL 8
REMARK VINA RESULT:    -3.681      2.355      2.697
REMARK INTER + INTRA:          -6.492
REMARK INTER:                  -5.138
REMARK INTRA:                  -1.354
REMARK UNBOUND:                -1.413
REMARK  Name = 
REMARK  9 active torsions:
REMARK  status: ('A' for Active; 'I' for Inactive)
REMARK    1  A    between atoms: C_1  and  C_2
REMARK    2  A    between atoms: C_2  and  C_3
REMARK    3  A    between atoms: C_5  and  C_6
REMARK    4  A    between atoms: C_7  and  C_9
REMARK    5  A    between atoms: N_11  and  C_12
REMARK    6  A    between atoms: C_12  and  C_13
REMARK    7  A    between atoms: C_12  and  C_17
REMARK    8  A    between atoms: C_13  and  C_14
REMARK    9  A    between atoms: C_14  and  O_16
REMARK                            x       y       z     vdW  Elec       q    Type
REMARK                         _______ _______ _______ _____ _____    ______ ____
ROOT
ATOM      1  C   UNL     1     -32.748 -12.397  17.519  0.00  0.00    +0.280 C 
ATOM      2  O   UNL     1     -32.781 -13.641  17.720  0.00  0.00    -0.267 OA
ATOM      3  N   UNL     1     -32.660 -11.496  18.632  0.00  0.00    -0.301 N 
ATOM      4  H   UNL     1     -32.905 -10.492  18.487  0.00  0.00    +0.150 HD
ENDROOT
BRANCH   1   9
ATOM      5  C   UNL     1     -33.541 -11.781  14.117  0.00  0.00    +0.106 A 
ATOM      6  C   UNL     1     -32.574 -10.802  14.230  0.00  0.00    +0.048 A 
ATOM      7  C   UNL     1     -32.117 -10.886  15.530  0.00  0.00    +0.000 A 
ATOM      8  C   UNL     1     -31.019 -10.052  16.113  0.00  0.00    +0.048 C 
ATOM      9  C   UNL     1     -32.848 -11.902  16.134  0.00  0.00    +0.192 A 
ATOM     10  O   UNL     1     -33.676 -12.422  15.255  0.00  0.00    -0.455 OA
BRANCH   5  12
ATOM     11  C   UNL     1     -33.463 -12.967  11.938  0.00  0.00    +0.012 C 
ATOM     12  C   UNL     1     -34.307 -12.113  12.876  0.00  0.00    +0.071 C 
ENDBRANCH   5  12
ENDBRANCH   1   9
BRANCH   3  13
ATOM     13  C   UNL     1     -32.322 -11.963  19.981  0.00  0.00    +0.121 C 
BRANCH  13  14
ATOM     14  C   UNL     1     -30.833 -12.159  20.089  0.00  0.00    +0.011 A 
ATOM     15  C   UNL     1     -30.186 -13.286  20.581  0.00  0.00    +0.013 A 
ATOM     16  C   UNL     1     -28.791 -13.180  20.544  0.00  0.00    +0.008 A 
ATOM     17  C   UNL     1     -28.336 -11.975  20.024  0.00  0.00    +0.045 A 
ATOM     18  S   UNL     1     -29.672 -11.042  19.608  0.00  0.00    -0.100 S 
ENDBRANCH  13  14
BRANCH  13  19
ATOM     19  C   UNL     1     -32.826 -10.962  21.039  0.00  0.00    +0.148 C 
BRANCH  19  20
ATOM     20  C   UNL     1     -33.462  -9.764  20.403  0.00  0.00    +0.307 C 
ATOM     21  O   UNL     1     -32.874  -8.649  20.425  0.00  0.00    -0.251 OA
BRANCH  20  22
ATOM     22  O   UNL     1     -34.722  -9.874  19.823  0.00  0.00    -0.481 OA
ATOM     23  H   UNL     1     -34.893  -9.531  18.885  0.00  0.00    +0.295 HD
ENDBRANCH  20  22
ENDBRANCH  19  20
ENDBRANCH  13  19
ENDBRANCH   3  13
TORSDOF 7
ENDMDL
MODEL 9
REMARK VINA RESULT:    -3.669      2.758      4.455
REMARK INTER + INTRA:          -6.476
REMARK INTER:                  -5.002
REMARK INTRA:                  -1.474
REMARK UNBOUND:                -1.413
REMARK  Name = 
REMARK  9 active torsions:
REMARK  status: ('A' for Active; 'I' for Inactive)
REMARK    1  A    between atoms: C_1  and  C_2
REMARK    2  A    between atoms: C_2  and  C_3
REMARK    3  A    between atoms: C_5  and  C_6
REMARK    4  A    between atoms: C_7  and  C_9
REMARK    5  A    between atoms: N_11  and  C_12
REMARK    6  A    between atoms: C_12  and  C_13
REMARK    7  A    between atoms: C_12  and  C_17
REMARK    8  A    between atoms: C_13  and  C_14
REMARK    9  A    between atoms: C_14  and  O_16
REMARK                            x       y       z     vdW  Elec       q    Type
REMARK                         _______ _______ _______ _____ _____    ______ ____
ROOT
ATOM      1  C   UNL     1     -31.052 -10.345  16.656  0.00  0.00    +0.280 C 
ATOM      2  O   UNL     1     -30.124  -9.513  16.467  0.00  0.00    -0.267 OA
ATOM      3  N   UNL     1     -31.335 -10.810  17.984  0.00  0.00    -0.301 N 
ATOM      4  H   UNL     1     -31.900 -11.679  18.103  0.00  0.00    +0.150 HD
ENDROOT
BRANCH   1   9
ATOM      5  C   UNL     1     -32.186 -12.026  13.745  0.00  0.00    +0.106 A 
ATOM      6  C   UNL     1     -33.300 -11.226  13.907  0.00  0.00    +0.048 A 
ATOM      7  C   UNL     1     -33.044 -10.460  15.026  0.00  0.00    +0.000 A 
ATOM      8  C   UNL     1     -33.948  -9.398  15.570  0.00  0.00    +0.048 C 
ATOM      9  C   UNL     1     -31.794 -10.854  15.488  0.00  0.00    +0.192 A 
ATOM     10  O   UNL     1     -31.307 -11.778  14.690  0.00  0.00    -0.455 OA
BRANCH   5  12
ATOM     11  C   UNL     1     -33.284 -13.329  11.941  0.00  0.00    +0.012 C 
ATOM     12  C   UNL     1     -31.968 -13.007  12.638  0.00  0.00    +0.071 C 
ENDBRANCH   5  12
ENDBRANCH   1   9
BRANCH   3  13
ATOM     13  C   UNL     1     -30.781 -10.148  19.170  0.00  0.00    +0.121 C 
BRANCH  13  14
ATOM     14  C   UNL     1     -31.664  -8.994  19.563  0.00  0.00    +0.011 A 
ATOM     15  C   UNL     1     -31.240  -7.767  20.062  0.00  0.00    +0.013 A 
ATOM     16  C   UNL     1     -32.295  -6.886  20.325  0.00  0.00    +0.008 A 
ATOM     17  C   UNL     1     -33.548  -7.412  20.035  0.00  0.00    +0.045 A 
ATOM     18  S   UNL     1     -33.341  -8.974  19.448  0.00  0.00    -0.100 S 
ENDBRANCH  13  14
BRANCH  13  19
ATOM     19  C   UNL     1     -30.637 -11.153  20.329  0.00  0.00    +0.148 C 
BRANCH  19  20
ATOM     20  C   UNL     1     -31.203 -12.493  19.969  0.00  0.00    +0.307 C 
ATOM     21  O   UNL     1     -30.439 -13.485  19.829  0.00  0.00    -0.251 OA
BRANCH  20  22
ATOM     22  O   UNL     1     -32.570 -12.632  19.751  0.00  0.00    -0.481 OA
ATOM     23  H   UNL     1     -32.930 -12.839  18.827  0.00  0.00    +0.295 HD
ENDBRANCH  20  22
ENDBRANCH  19  20
ENDBRANCH  13  19
ENDBRANCH   3  13
TORSDOF 7
ENDMDL
