MODEL 1
REMARK VINA RESULT:    -4.539      0.000      0.000
REMARK INTER + INTRA:          -7.629
REMARK INTER:                  -6.264
REMARK INTRA:                  -1.364
REMARK UNBOUND:                -1.364
REMARK  Name = 
REMARK  8 active torsions:
REMARK  status: ('A' for Active; 'I' for Inactive)
REMARK    1  A    between atoms: C_1  and  S_2
REMARK    2  A    between atoms: S_2  and  N_5
REMARK    3  A    between atoms: C_8  and  C_11
REMARK    4  A    between atoms: N_13  and  C_14
REMARK    5  A    between atoms: C_14  and  C_15
REMARK    6  A    between atoms: C_14  and  C_19
REMARK    7  A    between atoms: C_15  and  C_16
REMARK    8  A    between atoms: C_16  and  O_18
REMARK                            x       y       z     vdW  Elec       q    Type
REMARK                         _______ _______ _______ _____ _____    ______ ____
ROOT
ATOM      1  C   UNL     1     -31.036 -11.801  19.396  0.00  0.00    +0.217 C 
ATOM      2  O   UNL     1     -31.742 -12.644  20.016  0.00  0.00    -0.275 OA
ATOM      3  N   UNL     1     -31.608 -11.032  18.329  0.00  0.00    -0.308 N 
ATOM      4  H   UNL     1     -31.026 -10.284  17.888  0.00  0.00    +0.149 HD
ENDROOT
BRANCH   1   8
ATOM      5  N   UNL     1     -27.276 -13.542  19.448  0.00  0.00    -0.181 NA
ATOM      6  C   UNL     1     -27.281 -12.177  18.875  0.00  0.00    +0.110 C 
ATOM      7  C   UNL     1     -28.698 -11.730  18.503  0.00  0.00    +0.030 C 
ATOM      8  C   UNL     1     -29.582 -11.631  19.765  0.00  0.00    +0.077 C 
ATOM      9  C   UNL     1     -29.154 -12.633  20.863  0.00  0.00    +0.030 C 
ATOM     10  C   UNL     1     -28.469 -13.873  20.266  0.00  0.00    +0.110 C 
BRANCH   5  12
ATOM     11  C   UNL     1     -26.175 -14.134  22.062  0.00  0.00    +0.215 C 
ATOM     12  S   UNL     1     -25.803 -13.809  20.351  0.00  0.00    +0.029 S 
ATOM     13  O   UNL     1     -25.049 -14.977  19.775  0.00  0.00    -0.158 OA
ATOM     14  O   UNL     1     -24.941 -12.580  20.279  0.00  0.00    -0.158 OA
ENDBRANCH   5  12
ENDBRANCH   1   8
BRANCH   3  15
ATOM     15  C   UNL     1     -32.963 -11.291  17.825  0.00  0.00    +0.114 C 
BRANCH  15  16
ATOM     16  C   UNL     1     -32.945 -11.623  16.344  0.00  0.00    -0.027 A 
ATOM     17  C   UNL     1     -31.744 -11.955  15.685  0.00  0.00    +0.008 A 
ATOM     18  C   UNL     1     -31.741 -12.223  14.313  0.00  0.00    +0.038 A 
ATOM     19  C   UNL     1     -32.931 -12.159  13.583  0.00  0.00    +0.123 A 
ATOM     20  F   UNL     1     -32.925 -12.422  12.253  0.00  0.00    -0.205 F 
ATOM     21  C   UNL     1     -34.125 -11.819  14.225  0.00  0.00    +0.038 A 
ATOM     22  C   UNL     1     -34.133 -11.546  15.596  0.00  0.00    +0.008 A 
ENDBRANCH  15  16
BRANCH  15  23
ATOM     23  C   UNL     1     -33.918 -10.117  18.133  0.00  0.00    +0.147 C 
BRANCH  23  24
ATOM     24  C   UNL     1     -33.246  -8.775  18.102  0.00  0.00    +0.307 C 
ATOM     25  O   UNL     1     -32.404  -8.468  18.988  0.00  0.00    -0.251 OA
BRANCH  24  26
ATOM     26  O   UNL     1     -33.567  -7.860  17.104  0.00  0.00    -0.481 OA
ATOM     27  H   UNL     1     -33.078  -6.976  17.033  0.00  0.00    +0.295 HD
ENDBRANCH  24  26
ENDBRANCH  23  24
ENDBRANCH  15  23
ENDBRANCH   3  15
TORSDOF 7
ENDMDL
MODEL 2
REMARK VINA RESULT:    -4.152      3.488      5.821
REMARK INTER + INTRA:          -7.094
REMARK INTER:                  -5.729
REMARK INTRA:                  -1.365
REMARK UNBOUND:                -1.364
REMARK  Name = 
REMARK  8 active torsions:
REMARK  status: ('A' for Active; 'I' for Inactive)
REMARK    1  A    between atoms: C_1  and  S_2
REMARK    2  A    between atoms: S_2  and  N_5
REMARK    3  A    between atoms: C_8  and  C_11
REMARK    4  A    between atoms: N_13  and  C_14
REMARK    5  A    between atoms: C_14  and  C_15
REMARK    6  A    between atoms: C_14  and  C_19
REMARK    7  A    between atoms: C_15  and  C_16
REMARK    8  A    between atoms: C_16  and  O_18
REMARK                            x       y       z     vdW  Elec       q    Type
REMARK                         _______ _______ _______ _____ _____    ______ ____
ROOT
ATOM      1  C   UNL     1     -30.708 -10.284  16.674  0.00  0.00    +0.217 C 
ATOM      2  O   UNL     1     -30.294  -9.781  15.593  0.00  0.00    -0.275 OA
ATOM      3  N   UNL     1     -30.851 -11.707  16.795  0.00  0.00    -0.308 N 
ATOM      4  H   UNL     1     -31.116 -12.102  17.725  0.00  0.00    +0.149 HD
ENDROOT
BRANCH   1   8
ATOM      5  N   UNL     1     -32.976  -9.856  20.116  0.00  0.00    -0.181 NA
ATOM      6  C   UNL     1     -31.552  -9.496  20.304  0.00  0.00    +0.110 C 
ATOM      7  C   UNL     1     -30.681 -10.035  19.166  0.00  0.00    +0.030 C 
ATOM      8  C   UNL     1     -31.079  -9.380  17.825  0.00  0.00    +0.077 C 
ATOM      9  C   UNL     1     -32.577  -8.992  17.781  0.00  0.00    +0.030 C 
ATOM     10  C   UNL     1     -33.423  -9.887  18.700  0.00  0.00    +0.110 C 
BRANCH   5  12
ATOM     11  C   UNL     1     -32.997  -7.709  22.061  0.00  0.00    +0.215 C 
ATOM     12  S   UNL     1     -33.993  -8.805  21.072  0.00  0.00    +0.029 S 
ATOM     13  O   UNL     1     -34.885  -7.991  20.174  0.00  0.00    -0.158 OA
ATOM     14  O   UNL     1     -34.844  -9.633  21.993  0.00  0.00    -0.158 OA
ENDBRANCH   5  12
ENDBRANCH   1   8
BRANCH   3  15
ATOM     15  C   UNL     1     -30.670 -12.605  15.647  0.00  0.00    +0.114 C 
BRANCH  15  16
ATOM     16  C   UNL     1     -31.813 -12.469  14.657  0.00  0.00    -0.027 A 
ATOM     17  C   UNL     1     -31.643 -12.794  13.296  0.00  0.00    +0.008 A 
ATOM     18  C   UNL     1     -32.697 -12.630  12.393  0.00  0.00    +0.038 A 
ATOM     19  C   UNL     1     -33.928 -12.136  12.833  0.00  0.00    +0.123 A 
ATOM     20  F   UNL     1     -34.948 -11.980  11.955  0.00  0.00    -0.205 F 
ATOM     21  C   UNL     1     -34.103 -11.799  14.178  0.00  0.00    +0.038 A 
ATOM     22  C   UNL     1     -33.051 -11.958  15.085  0.00  0.00    +0.008 A 
ENDBRANCH  15  16
BRANCH  15  23
ATOM     23  C   UNL     1     -30.479 -14.070  16.097  0.00  0.00    +0.147 C 
BRANCH  23  24
ATOM     24  C   UNL     1     -30.421 -14.236  17.588  0.00  0.00    +0.307 C 
ATOM     25  O   UNL     1     -29.533 -13.642  18.256  0.00  0.00    -0.251 OA
BRANCH  24  26
ATOM     26  O   UNL     1     -31.337 -15.061  18.232  0.00  0.00    -0.481 OA
ATOM     27  H   UNL     1     -31.886 -15.734  17.711  0.00  0.00    +0.295 HD
ENDBRANCH  24  26
ENDBRANCH  23  24
ENDBRANCH  15  23
ENDBRANCH   3  15
TORSDOF 7
ENDMDL
MODEL 3
REMARK VINA RESULT:    -4.044      2.342      3.047
REMARK INTER + INTRA:          -6.946
REMARK INTER:                  -5.355
REMARK INTRA:                  -1.591
REMARK UNBOUND:                -1.364
REMARK  Name = 
REMARK  8 active torsions:
REMARK  status: ('A' for Active; 'I' for Inactive)
REMARK    1  A    between atoms: C_1  and  S_2
REMARK    2  A    between atoms: S_2  and  N_5
REMARK    3  A    between atoms: C_8  and  C_11
REMARK    4  A    between atoms: N_13  and  C_14
REMARK    5  A    between atoms: C_14  and  C_15
REMARK    6  A    between atoms: C_14  and  C_19
REMARK    7  A    between atoms: C_15  and  C_16
REMARK    8  A    between atoms: C_16  and  O_18
REMARK                            x       y       z     vdW  Elec       q    Type
REMARK                         _______ _______ _______ _____ _____    ______ ____
ROOT
ATOM      1  C   UNL     1     -32.748 -10.802  20.338  0.00  0.00    +0.217 C 
ATOM      2  O   UNL     1     -33.777 -10.983  21.046  0.00  0.00    -0.275 OA
ATOM      3  N   UNL     1     -32.723  -9.751  19.362  0.00  0.00    -0.308 N 
ATOM      4  H   UNL     1     -31.831  -9.571  18.848  0.00  0.00    +0.149 HD
ENDROOT
BRANCH   1   8
ATOM      5  N   UNL     1     -28.695 -11.325  19.655  0.00  0.00    -0.181 NA
ATOM      6  C   UNL     1     -29.094 -11.607  21.052  0.00  0.00    +0.110 C 
ATOM      7  C   UNL     1     -30.477 -11.031  21.368  0.00  0.00    +0.030 C 
ATOM      8  C   UNL     1     -31.558 -11.716  20.504  0.00  0.00    +0.077 C 
ATOM      9  C   UNL     1     -31.007 -12.183  19.134  0.00  0.00    +0.030 C 
ATOM     10  C   UNL     1     -29.814 -11.329  18.679  0.00  0.00    +0.110 C 
BRANCH   5  12
ATOM     11  C   UNL     1     -27.113 -13.624  20.434  0.00  0.00    +0.215 C 
ATOM     12  S   UNL     1     -27.427 -12.422  19.158  0.00  0.00    +0.029 S 
ATOM     13  O   UNL     1     -27.825 -13.132  17.893  0.00  0.00    -0.158 OA
ATOM     14  O   UNL     1     -26.162 -11.648  18.914  0.00  0.00    -0.158 OA
ENDBRANCH   5  12
ENDBRANCH   1   8
BRANCH   3  15
ATOM     15  C   UNL     1     -33.918  -8.956  19.048  0.00  0.00    +0.114 C 
BRANCH  15  16
ATOM     16  C   UNL     1     -34.157  -8.891  17.550  0.00  0.00    -0.027 A 
ATOM     17  C   UNL     1     -33.639  -9.874  16.684  0.00  0.00    +0.008 A 
ATOM     18  C   UNL     1     -33.839  -9.780  15.304  0.00  0.00    +0.038 A 
ATOM     19  C   UNL     1     -34.553  -8.702  14.772  0.00  0.00    +0.123 A 
ATOM     20  F   UNL     1     -34.748  -8.614  13.434  0.00  0.00    -0.205 F 
ATOM     21  C   UNL     1     -35.060  -7.715  15.620  0.00  0.00    +0.038 A 
ATOM     22  C   UNL     1     -34.859  -7.804  17.001  0.00  0.00    +0.008 A 
ENDBRANCH  15  16
BRANCH  15  23
ATOM     23  C   UNL     1     -33.841  -7.545  19.673  0.00  0.00    +0.147 C 
BRANCH  23  24
ATOM     24  C   UNL     1     -32.475  -6.930  19.598  0.00  0.00    +0.307 C 
ATOM     25  O   UNL     1     -31.503  -7.472  20.191  0.00  0.00    -0.251 OA
BRANCH  24  26
ATOM     26  O   UNL     1     -32.281  -5.749  18.889  0.00  0.00    -0.481 OA
ATOM     27  H   UNL     1     -32.544  -5.681  17.913  0.00  0.00    +0.295 HD
ENDBRANCH  24  26
ENDBRANCH  23  24
ENDBRANCH  15  23
ENDBRANCH   3  15
TORSDOF 7
ENDMDL
MODEL 4
REMARK VINA RESULT:    -3.904      3.927      7.399
REMARK INTER + INTRA:          -6.752
REMARK INTER:                  -6.052
REMARK INTRA:                  -0.700
REMARK UNBOUND:                -1.364
REMARK  Name = 
REMARK  8 active torsions:
REMARK  status: ('A' for Active; 'I' for Inactive)
REMARK    1  A    between atoms: C_1  and  S_2
REMARK    2  A    between atoms: S_2  and  N_5
REMARK    3  A    between atoms: C_8  and  C_11
REMARK    4  A    between atoms: N_13  and  C_14
REMARK    5  A    between atoms: C_14  and  C_15
REMARK    6  A    between atoms: C_14  and  C_19
REMARK    7  A    between atoms: C_15  and  C_16
REMARK    8  A    between atoms: C_16  and  O_18
REMARK                            x       y       z     vdW  Elec       q    Type
REMARK                         _______ _______ _______ _____ _____    ______ ____
ROOT
ATOM      1  C   UNL     1     -30.246 -13.839  18.426  0.00  0.00    +0.217 C 
ATOM      2  O   UNL     1     -31.021 -13.754  19.419  0.00  0.00    -0.275 OA
ATOM      3  N   UNL     1     -28.863 -13.481  18.562  0.00  0.00    -0.308 N 
ATOM      4  H   UNL     1     -28.227 -13.639  17.748  0.00  0.00    +0.149 HD
ENDROOT
BRANCH   1   8
ATOM      5  N   UNL     1     -30.886 -12.834  14.457  0.00  0.00    -0.181 NA
ATOM      6  C   UNL     1     -30.238 -14.154  14.630  0.00  0.00    +0.110 C 
ATOM      7  C   UNL     1     -29.660 -14.316  16.039  0.00  0.00    +0.030 C 
ATOM      8  C   UNL     1     -30.789 -14.291  17.092  0.00  0.00    +0.077 C 
ATOM      9  C   UNL     1     -31.991 -13.423  16.646  0.00  0.00    +0.030 C 
ATOM     10  C   UNL     1     -31.561 -12.314  15.673  0.00  0.00    +0.110 C 
BRANCH   5  12
ATOM     11  C   UNL     1     -33.551 -12.153  13.547  0.00  0.00    +0.215 C 
ATOM     12  S   UNL     1     -31.987 -12.877  13.100  0.00  0.00    +0.029 S 
ATOM     13  O   UNL     1     -31.403 -12.121  11.938  0.00  0.00    -0.158 OA
ATOM     14  O   UNL     1     -32.224 -14.304  12.692  0.00  0.00    -0.158 OA
ENDBRANCH   5  12
ENDBRANCH   1   8
BRANCH   3  15
ATOM     15  C   UNL     1     -28.336 -12.873  19.790  0.00  0.00    +0.114 C 
BRANCH  15  16
ATOM     16  C   UNL     1     -29.088 -11.600  20.139  0.00  0.00    -0.027 A 
ATOM     17  C   UNL     1     -29.558 -11.365  21.447  0.00  0.00    +0.008 A 
ATOM     18  C   UNL     1     -30.278 -10.204  21.742  0.00  0.00    +0.038 A 
ATOM     19  C   UNL     1     -30.541  -9.268  20.738  0.00  0.00    +0.123 A 
ATOM     20  F   UNL     1     -31.237  -8.142  21.028  0.00  0.00    -0.205 F 
ATOM     21  C   UNL     1     -30.089  -9.497  19.436  0.00  0.00    +0.038 A 
ATOM     22  C   UNL     1     -29.372 -10.659  19.135  0.00  0.00    +0.008 A 
ENDBRANCH  15  16
BRANCH  15  23
ATOM     23  C   UNL     1     -26.814 -12.626  19.694  0.00  0.00    +0.147 C 
BRANCH  23  24
ATOM     24  C   UNL     1     -25.989 -13.740  20.269  0.00  0.00    +0.307 C 
ATOM     25  O   UNL     1     -24.940 -13.480  20.917  0.00  0.00    -0.251 OA
BRANCH  24  26
ATOM     26  O   UNL     1     -26.373 -15.062  20.072  0.00  0.00    -0.481 OA
ATOM     27  H   UNL     1     -27.103 -15.481  20.635  0.00  0.00    +0.295 HD
ENDBRANCH  24  26
ENDBRANCH  23  24
ENDBRANCH  15  23
ENDBRANCH   3  15
TORSDOF 7
ENDMDL
MODEL 5
REMARK VINA RESULT:    -3.841      1.186      1.482
REMARK INTER + INTRA:          -6.665
REMARK INTER:                  -6.189
REMARK INTRA:                  -0.476
REMARK UNBOUND:                -1.364
REMARK  Name = 
REMARK  8 active torsions:
REMARK  status: ('A' for Active; 'I' for Inactive)
REMARK    1  A    between atoms: C_1  and  S_2
REMARK    2  A    between atoms: S_2  and  N_5
REMARK    3  A    between atoms: C_8  and  C_11
REMARK    4  A    between atoms: N_13  and  C_14
REMARK    5  A    between atoms: C_14  and  C_15
REMARK    6  A    between atoms: C_14  and  C_19
REMARK    7  A    between atoms: C_15  and  C_16
REMARK    8  A    between atoms: C_16  and  O_18
REMARK                            x       y       z     vdW  Elec       q    Type
REMARK                         _______ _______ _______ _____ _____    ______ ____
ROOT
ATOM      1  C   UNL     1     -30.566 -10.740  18.380  0.00  0.00    +0.217 C 
ATOM      2  O   UNL     1     -30.813  -9.732  17.661  0.00  0.00    -0.275 OA
ATOM      3  N   UNL     1     -31.568 -11.749  18.569  0.00  0.00    -0.308 N 
ATOM      4  H   UNL     1     -31.310 -12.612  19.100  0.00  0.00    +0.149 HD
ENDROOT
BRANCH   1   8
ATOM      5  N   UNL     1     -27.269 -13.153  19.069  0.00  0.00    -0.181 NA
ATOM      6  C   UNL     1     -26.911 -11.785  18.629  0.00  0.00    +0.110 C 
ATOM      7  C   UNL     1     -28.111 -11.064  18.008  0.00  0.00    +0.030 C 
ATOM      8  C   UNL     1     -29.223 -10.861  19.059  0.00  0.00    +0.077 C 
ATOM      9  C   UNL     1     -29.230 -11.978  20.131  0.00  0.00    +0.030 C 
ATOM     10  C   UNL     1     -28.653 -13.294  19.586  0.00  0.00    +0.110 C 
BRANCH   5  12
ATOM     11  C   UNL     1     -26.862 -13.911  21.836  0.00  0.00    +0.215 C 
ATOM     12  S   UNL     1     -26.103 -13.734  20.235  0.00  0.00    +0.029 S 
ATOM     13  O   UNL     1     -25.551 -15.062  19.796  0.00  0.00    -0.158 OA
ATOM     14  O   UNL     1     -24.976 -12.746  20.352  0.00  0.00    -0.158 OA
ENDBRANCH   5  12
ENDBRANCH   1   8
BRANCH   3  15
ATOM     15  C   UNL     1     -32.940 -11.583  18.072  0.00  0.00    +0.114 C 
BRANCH  15  16
ATOM     16  C   UNL     1     -33.006 -11.779  16.568  0.00  0.00    -0.027 A 
ATOM     17  C   UNL     1     -32.012 -12.503  15.881  0.00  0.00    +0.008 A 
ATOM     18  C   UNL     1     -32.071 -12.644  14.491  0.00  0.00    +0.038 A 
ATOM     19  C   UNL     1     -33.118 -12.061  13.772  0.00  0.00    +0.123 A 
ATOM     20  F   UNL     1     -33.174 -12.201  12.425  0.00  0.00    -0.205 F 
ATOM     21  C   UNL     1     -34.102 -11.331  14.442  0.00  0.00    +0.038 A 
ATOM     22  C   UNL     1     -34.045 -11.184  15.831  0.00  0.00    +0.008 A 
ENDBRANCH  15  16
BRANCH  15  23
ATOM     23  C   UNL     1     -33.536 -10.222  18.495  0.00  0.00    +0.147 C 
BRANCH  23  24
ATOM     24  C   UNL     1     -33.794 -10.114  19.969  0.00  0.00    +0.307 C 
ATOM     25  O   UNL     1     -33.226 -10.904  20.771  0.00  0.00    -0.251 OA
BRANCH  24  26
ATOM     26  O   UNL     1     -34.674  -9.151  20.453  0.00  0.00    -0.481 OA
ATOM     27  H   UNL     1     -34.343  -8.233  20.724  0.00  0.00    +0.295 HD
ENDBRANCH  24  26
ENDBRANCH  23  24
ENDBRANCH  15  23
ENDBRANCH   3  15
TORSDOF 7
ENDMDL
MODEL 6
REMARK VINA RESULT:    -3.762      4.136      7.216
REMARK INTER + INTRA:          -6.557
REMARK INTER:                  -5.850
REMARK INTRA:                  -0.707
REMARK UNBOUND:                -1.364
REMARK  Name = 
REMARK  8 active torsions:
REMARK  status: ('A' for Active; 'I' for Inactive)
REMARK    1  A    between atoms: C_1  and  S_2
REMARK    2  A    between atoms: S_2  and  N_5
REMARK    3  A    between atoms: C_8  and  C_11
REMARK    4  A    between atoms: N_13  and  C_14
REMARK    5  A    between atoms: C_14  and  C_15
REMARK    6  A    between atoms: C_14  and  C_19
REMARK    7  A    between atoms: C_15  and  C_16
REMARK    8  A    between atoms: C_16  and  O_18
REMARK                            x       y       z     vdW  Elec       q    Type
REMARK                         _______ _______ _______ _____ _____    ______ ____
ROOT
ATOM      1  C   UNL     1     -31.844 -10.454  17.703  0.00  0.00    +0.217 C 
ATOM      2  O   UNL     1     -32.371 -11.075  18.667  0.00  0.00    -0.275 OA
ATOM      3  N   UNL     1     -30.573  -9.811  17.872  0.00  0.00    -0.308 N 
ATOM      4  H   UNL     1     -30.121  -9.375  17.037  0.00  0.00    +0.149 HD
ENDROOT
BRANCH   1   8
ATOM      5  N   UNL     1     -33.104 -12.504  14.330  0.00  0.00    -0.181 NA
ATOM      6  C   UNL     1     -34.177 -11.706  14.964  0.00  0.00    +0.110 C 
ATOM      7  C   UNL     1     -33.804 -11.298  16.392  0.00  0.00    +0.030 C 
ATOM      8  C   UNL     1     -32.572 -10.366  16.383  0.00  0.00    +0.077 C 
ATOM      9  C   UNL     1     -31.625 -10.654  15.194  0.00  0.00    +0.030 C 
ATOM     10  C   UNL     1     -31.727 -12.114  14.725  0.00  0.00    +0.110 C 
BRANCH   5  12
ATOM     11  C   UNL     1     -34.485 -11.258  12.108  0.00  0.00    +0.215 C 
ATOM     12  S   UNL     1     -33.285 -12.483  12.591  0.00  0.00    +0.029 S 
ATOM     13  O   UNL     1     -31.966 -12.173  11.938  0.00  0.00    -0.158 OA
ATOM     14  O   UNL     1     -33.765 -13.827  12.121  0.00  0.00    -0.158 OA
ENDBRANCH   5  12
ENDBRANCH   1   8
BRANCH   3  15
ATOM     15  C   UNL     1     -29.917  -9.723  19.183  0.00  0.00    +0.114 C 
BRANCH  15  16
ATOM     16  C   UNL     1     -29.308 -11.055  19.584  0.00  0.00    -0.027 A 
ATOM     17  C   UNL     1     -29.678 -11.697  20.782  0.00  0.00    +0.008 A 
ATOM     18  C   UNL     1     -29.082 -12.907  21.151  0.00  0.00    +0.038 A 
ATOM     19  C   UNL     1     -28.107 -13.486  20.333  0.00  0.00    +0.123 A 
ATOM     20  F   UNL     1     -27.532 -14.659  20.693  0.00  0.00    -0.205 F 
ATOM     21  C   UNL     1     -27.724 -12.851  19.149  0.00  0.00    +0.038 A 
ATOM     22  C   UNL     1     -28.315 -11.640  18.778  0.00  0.00    +0.008 A 
ENDBRANCH  15  16
BRANCH  15  23
ATOM     23  C   UNL     1     -30.881  -9.191  20.266  0.00  0.00    +0.147 C 
BRANCH  23  24
ATOM     24  C   UNL     1     -30.866  -7.696  20.400  0.00  0.00    +0.307 C 
ATOM     25  O   UNL     1     -31.904  -7.028  20.149  0.00  0.00    -0.251 OA
BRANCH  24  26
ATOM     26  O   UNL     1     -29.699  -7.045  20.785  0.00  0.00    -0.481 OA
ATOM     27  H   UNL     1     -28.926  -7.559  21.189  0.00  0.00    +0.295 HD
ENDBRANCH  24  26
ENDBRANCH  23  24
ENDBRANCH  15  23
ENDBRANCH   3  15
TORSDOF 7
ENDMDL
MODEL 7
REMARK VINA RESULT:    -3.761      4.720      7.761
REMARK INTER + INTRA:          -6.554
REMARK INTER:                  -5.429
REMARK INTRA:                  -1.125
REMARK UNBOUND:                -1.364
REMARK  Name = 
REMARK  8 active torsions:
REMARK  status: ('A' for Active; 'I' for Inactive)
REMARK    1  A    between atoms: C_1  and  S_2
REMARK    2  A    between atoms: S_2  and  N_5
REMARK    3  A    between atoms: C_8  and  C_11
REMARK    4  A    between atoms: N_13  and  C_14
REMARK    5  A    between atoms: C_14  and  C_15
REMARK    6  A    between atoms: C_14  and  C_19
REMARK    7  A    between atoms: C_15  and  C_16
REMARK    8  A    between atoms: C_16  and  O_18
REMARK                            x       y       z     vdW  Elec       q    Type
REMARK                         _______ _______ _______ _____ _____    ______ ____
ROOT
ATOM      1  C   UNL     1     -31.531 -11.451  20.541  0.00  0.00    +0.217 C 
ATOM      2  O   UNL     1     -32.376 -12.388  20.559  0.00  0.00    -0.275 OA
ATOM      3  N   UNL     1     -30.230 -11.669  19.977  0.00  0.00    -0.308 N 
ATOM      4  H   UNL     1     -29.579 -10.855  19.900  0.00  0.00    +0.149 HD
ENDROOT
BRANCH   1   8
ATOM      5  N   UNL     1     -32.581  -7.515  19.785  0.00  0.00    -0.181 NA
ATOM      6  C   UNL     1     -33.470  -8.180  20.765  0.00  0.00    +0.110 C 
ATOM      7  C   UNL     1     -33.315  -9.703  20.721  0.00  0.00    +0.030 C 
ATOM      8  C   UNL     1     -31.887 -10.113  21.142  0.00  0.00    +0.077 C 
ATOM      9  C   UNL     1     -30.835  -9.034  20.785  0.00  0.00    +0.030 C 
ATOM     10  C   UNL     1     -31.275  -8.189  19.579  0.00  0.00    +0.110 C 
BRANCH   5  12
ATOM     11  C   UNL     1     -33.203  -5.471  21.742  0.00  0.00    +0.215 C 
ATOM     12  S   UNL     1     -32.359  -5.836  20.217  0.00  0.00    +0.029 S 
ATOM     13  O   UNL     1     -30.894  -5.532  20.374  0.00  0.00    -0.158 OA
ATOM     14  O   UNL     1     -32.932  -4.961  19.138  0.00  0.00    -0.158 OA
ENDBRANCH   5  12
ENDBRANCH   1   8
BRANCH   3  15
ATOM     15  C   UNL     1     -29.785 -13.000  19.544  0.00  0.00    +0.114 C 
BRANCH  15  16
ATOM     16  C   UNL     1     -28.483 -13.392  20.220  0.00  0.00    -0.027 A 
ATOM     17  C   UNL     1     -27.238 -13.122  19.618  0.00  0.00    +0.008 A 
ATOM     18  C   UNL     1     -26.050 -13.520  20.239  0.00  0.00    +0.038 A 
ATOM     19  C   UNL     1     -26.091 -14.195  21.462  0.00  0.00    +0.123 A 
ATOM     20  F   UNL     1     -24.938 -14.578  22.062  0.00  0.00    -0.205 F 
ATOM     21  C   UNL     1     -27.320 -14.477  22.062  0.00  0.00    +0.038 A 
ATOM     22  C   UNL     1     -28.511 -14.085  21.443  0.00  0.00    +0.008 A 
ENDBRANCH  15  16
BRANCH  15  23
ATOM     23  C   UNL     1     -29.677 -13.090  18.006  0.00  0.00    +0.147 C 
BRANCH  23  24
ATOM     24  C   UNL     1     -30.317 -14.320  17.431  0.00  0.00    +0.307 C 
ATOM     25  O   UNL     1     -30.017 -14.705  16.269  0.00  0.00    -0.251 OA
BRANCH  24  26
ATOM     26  O   UNL     1     -31.256 -15.027  18.175  0.00  0.00    -0.481 OA
ATOM     27  H   UNL     1     -31.064 -15.968  18.495  0.00  0.00    +0.295 HD
ENDBRANCH  24  26
ENDBRANCH  23  24
ENDBRANCH  15  23
ENDBRANCH   3  15
TORSDOF 7
ENDMDL
MODEL 8
REMARK VINA RESULT:    -3.734      4.138      7.298
REMARK INTER + INTRA:          -6.518
REMARK INTER:                  -5.356
REMARK INTRA:                  -1.162
REMARK UNBOUND:                -1.364
REMARK  Name = 
REMARK  8 active torsions:
REMARK  status: ('A' for Active; 'I' for Inactive)
REMARK    1  A    between atoms: C_1  and  S_2
REMARK    2  A    between atoms: S_2  and  N_5
REMARK    3  A    between atoms: C_8  and  C_11
REMARK    4  A    between atoms: N_13  and  C_14
REMARK    5  A    between atoms: C_14  and  C_15
REMARK    6  A    between atoms: C_14  and  C_19
REMARK    7  A    between atoms: C_15  and  C_16
REMARK    8  A    between atoms: C_16  and  O_18
REMARK                            x       y       z     vdW  Elec       q    Type
REMARK                         _______ _______ _______ _____ _____    ______ ____
ROOT
ATOM      1  C   UNL     1     -31.395  -9.696  17.692  0.00  0.00    +0.217 C 
ATOM      2  O   UNL     1     -31.463  -8.590  18.297  0.00  0.00    -0.275 OA
ATOM      3  N   UNL     1     -30.948 -10.868  18.388  0.00  0.00    -0.308 N 
ATOM      4  H   UNL     1     -30.980 -11.785  17.888  0.00  0.00    +0.149 HD
ENDROOT
BRANCH   1   8
ATOM      5  N   UNL     1     -33.699 -11.585  14.813  0.00  0.00    -0.181 NA
ATOM      6  C   UNL     1     -33.775 -10.108  14.747  0.00  0.00    +0.110 C 
ATOM      7  C   UNL     1     -33.257  -9.461  16.034  0.00  0.00    +0.030 C 
ATOM      8  C   UNL     1     -31.756  -9.770  16.229  0.00  0.00    +0.077 C 
ATOM      9  C   UNL     1     -31.352 -11.132  15.614  0.00  0.00    +0.030 C 
ATOM     10  C   UNL     1     -32.535 -12.110  15.570  0.00  0.00    +0.110 C 
BRANCH   5  12
ATOM     11  C   UNL     1     -32.233 -13.106  12.831  0.00  0.00    +0.215 C 
ATOM     12  S   UNL     1     -33.756 -12.262  13.202  0.00  0.00    +0.029 S 
ATOM     13  O   UNL     1     -34.902 -13.231  13.090  0.00  0.00    -0.158 OA
ATOM     14  O   UNL     1     -33.943 -11.158  12.200  0.00  0.00    -0.158 OA
ENDBRANCH   5  12
ENDBRANCH   1   8
BRANCH   3  15
ATOM     15  C   UNL     1     -30.422 -10.804  19.758  0.00  0.00    +0.114 C 
BRANCH  15  16
ATOM     16  C   UNL     1     -29.235 -11.734  19.935  0.00  0.00    -0.027 A 
ATOM     17  C   UNL     1     -28.126 -11.676  19.067  0.00  0.00    +0.008 A 
ATOM     18  C   UNL     1     -27.057 -12.562  19.224  0.00  0.00    +0.038 A 
ATOM     19  C   UNL     1     -27.083 -13.518  20.243  0.00  0.00    +0.123 A 
ATOM     20  F   UNL     1     -26.045 -14.376  20.394  0.00  0.00    -0.205 F 
ATOM     21  C   UNL     1     -28.183 -13.592  21.102  0.00  0.00    +0.038 A 
ATOM     22  C   UNL     1     -29.256 -12.710  20.947  0.00  0.00    +0.008 A 
ENDBRANCH  15  16
BRANCH  15  23
ATOM     23  C   UNL     1     -31.525 -11.084  20.804  0.00  0.00    +0.147 C 
BRANCH  23  24
ATOM     24  C   UNL     1     -32.805 -11.587  20.204  0.00  0.00    +0.307 C 
ATOM     25  O   UNL     1     -33.866 -10.919  20.326  0.00  0.00    -0.251 OA
BRANCH  24  26
ATOM     26  O   UNL     1     -32.825 -12.802  19.526  0.00  0.00    -0.481 OA
ATOM     27  H   UNL     1     -33.523 -13.504  19.738  0.00  0.00    +0.295 HD
ENDBRANCH  24  26
ENDBRANCH  23  24
ENDBRANCH  15  23
ENDBRANCH   3  15
TORSDOF 7
ENDMDL
MODEL 9
REMARK VINA RESULT:    -3.526      3.593      7.136
REMARK INTER + INTRA:          -6.230
REMARK INTER:                  -5.369
REMARK INTRA:                  -0.860
REMARK UNBOUND:                -1.364
REMARK  Name = 
REMARK  8 active torsions:
REMARK  status: ('A' for Active; 'I' for Inactive)
REMARK    1  A    between atoms: C_1  and  S_2
REMARK    2  A    between atoms: S_2  and  N_5
REMARK    3  A    between atoms: C_8  and  C_11
REMARK    4  A    between atoms: N_13  and  C_14
REMARK    5  A    between atoms: C_14  and  C_15
REMARK    6  A    between atoms: C_14  and  C_19
REMARK    7  A    between atoms: C_15  and  C_16
REMARK    8  A    between atoms: C_16  and  O_18
REMARK                            x       y       z     vdW  Elec       q    Type
REMARK                         _______ _______ _______ _____ _____    ______ ____
ROOT
ATOM      1  C   UNL     1     -29.930 -10.529  20.287  0.00  0.00    +0.217 C 
ATOM      2  O   UNL     1     -29.269 -10.038  19.331  0.00  0.00    -0.275 OA
ATOM      3  N   UNL     1     -29.668 -11.870  20.727  0.00  0.00    -0.308 N 
ATOM      4  H   UNL     1     -30.172 -12.222  21.572  0.00  0.00    +0.149 HD
ENDROOT
BRANCH   1   8
ATOM      5  N   UNL     1     -33.306  -8.198  19.703  0.00  0.00    -0.181 NA
ATOM      6  C   UNL     1     -33.490  -9.248  20.730  0.00  0.00    +0.110 C 
ATOM      7  C   UNL     1     -32.401 -10.320  20.639  0.00  0.00    +0.030 C 
ATOM      8  C   UNL     1     -31.015  -9.710  20.943  0.00  0.00    +0.077 C 
ATOM      9  C   UNL     1     -30.926  -8.220  20.534  0.00  0.00    +0.030 C 
ATOM     10  C   UNL     1     -31.889  -7.886  19.385  0.00  0.00    +0.110 C 
BRANCH   5  12
ATOM     11  C   UNL     1     -33.041  -5.445  20.567  0.00  0.00    +0.215 C 
ATOM     12  S   UNL     1     -34.178  -6.752  20.157  0.00  0.00    +0.029 S 
ATOM     13  O   UNL     1     -35.062  -6.306  19.025  0.00  0.00    -0.158 OA
ATOM     14  O   UNL     1     -35.027  -7.038  21.364  0.00  0.00    -0.158 OA
ENDBRANCH   5  12
ENDBRANCH   1   8
BRANCH   3  15
ATOM     15  C   UNL     1     -28.748 -12.757  20.004  0.00  0.00    +0.114 C 
BRANCH  15  16
ATOM     16  C   UNL     1     -29.392 -13.311  18.746  0.00  0.00    -0.027 A 
ATOM     17  C   UNL     1     -28.736 -13.248  17.501  0.00  0.00    +0.008 A 
ATOM     18  C   UNL     1     -29.359 -13.732  16.347  0.00  0.00    +0.038 A 
ATOM     19  C   UNL     1     -30.643 -14.279  16.421  0.00  0.00    +0.123 A 
ATOM     20  F   UNL     1     -31.243 -14.749  15.300  0.00  0.00    -0.205 F 
ATOM     21  C   UNL     1     -31.307 -14.336  17.648  0.00  0.00    +0.038 A 
ATOM     22  C   UNL     1     -30.690 -13.850  18.805  0.00  0.00    +0.008 A 
ENDBRANCH  15  16
BRANCH  15  23
ATOM     23  C   UNL     1     -28.216 -13.886  20.915  0.00  0.00    +0.147 C 
BRANCH  23  24
ATOM     24  C   UNL     1     -26.726 -14.053  20.853  0.00  0.00    +0.307 C 
ATOM     25  O   UNL     1     -25.995 -13.549  21.747  0.00  0.00    -0.251 OA
BRANCH  24  26
ATOM     26  O   UNL     1     -26.148 -14.752  19.798  0.00  0.00    -0.481 OA
ATOM     27  H   UNL     1     -25.247 -15.202  19.904  0.00  0.00    +0.295 HD
ENDBRANCH  24  26
ENDBRANCH  23  24
ENDBRANCH  15  23
ENDBRANCH   3  15
TORSDOF 7
ENDMDL
