MODEL 1
REMARK VINA RESULT:    -3.676      0.000      0.000
REMARK INTER + INTRA:          -5.149
REMARK INTER:                  -4.535
REMARK INTRA:                  -0.614
REMARK UNBOUND:                -0.614
REMARK  Name = 
REMARK  6 active torsions:
REMARK  status: ('A' for Active; 'I' for Inactive)
REMARK    1  A    between atoms: C_1  and  C_2
REMARK    2  A    between atoms: C_2  and  C_3
REMARK    3  A    between atoms: C_3  and  C_4
REMARK    4  A    between atoms: C_3  and  N_6
REMARK    5  A    between atoms: C_4  and  C_5
REMARK    6  A    between atoms: C_10  and  N_14
REMARK                            x       y       z     vdW  Elec       q    Type
REMARK                         _______ _______ _______ _____ _____    ______ ____
ROOT
ATOM      1  N   UNL     1     -31.240 -13.174  19.932  0.00  0.00    -0.311 N 
ATOM      2  C   UNL     1     -29.808 -13.164  19.981  0.00  0.00    +0.217 A 
ATOM      3  N   UNL     1     -29.091 -12.372  19.141  0.00  0.00    -0.221 NA
ATOM      4  C   UNL     1     -27.736 -12.354  19.179  0.00  0.00    +0.150 A 
ATOM      5  C   UNL     1     -27.043 -13.149  20.102  0.00  0.00    +0.184 A 
ATOM      6  C   UNL     1     -27.802 -13.986  20.948  0.00  0.00    +0.152 A 
ATOM      7  N   UNL     1     -27.185 -14.906  21.854  0.00  0.00    -0.341 N 
ATOM      8  N   UNL     1     -29.159 -13.962  20.868  0.00  0.00    -0.198 NA
ATOM      9  H   UNL     1     -31.748 -13.784  20.613  0.00  0.00    +0.149 HD
ATOM     10  H   UNL     1     -27.776 -15.453  22.519  0.00  0.00    +0.144 HD
ATOM     11  H   UNL     1     -26.172 -15.147  21.797  0.00  0.00    +0.144 HD
ENDROOT
BRANCH   5  12
ATOM     12  N   UNL     1     -25.610 -13.070  20.176  0.00  0.00    +0.061 N 
ATOM     13  O   UNL     1     -24.938 -12.116  19.448  0.00  0.00    -0.126 OA
ATOM     14  O   UNL     1     -24.988 -13.709  21.050  0.00  0.00    -0.126 OA
ENDBRANCH   5  12
BRANCH   1  15
ATOM     15  C   UNL     1     -32.003 -12.340  18.994  0.00  0.00    +0.073 C 
BRANCH  15  17
ATOM     16  C   UNL     1     -32.052 -12.574  16.446  0.00  0.00    +0.006 C 
ATOM     17  C   UNL     1     -32.455 -13.198  17.781  0.00  0.00    +0.019 C 
ENDBRANCH  15  17
BRANCH  15  18
ATOM     18  C   UNL     1     -33.198 -11.697  19.735  0.00  0.00    +0.019 C 
ATOM     19  C   UNL     1     -33.300 -10.189  19.516  0.00  0.00    +0.006 C 
ENDBRANCH  15  18
ENDBRANCH   1  15
TORSDOF 4
ENDMDL
MODEL 2
REMARK VINA RESULT:    -3.545      1.812      2.212
REMARK INTER + INTRA:          -4.988
REMARK INTER:                  -4.340
REMARK INTRA:                  -0.648
REMARK UNBOUND:                -0.614
REMARK  Name = 
REMARK  6 active torsions:
REMARK  status: ('A' for Active; 'I' for Inactive)
REMARK    1  A    between atoms: C_1  and  C_2
REMARK    2  A    between atoms: C_2  and  C_3
REMARK    3  A    between atoms: C_3  and  C_4
REMARK    4  A    between atoms: C_3  and  N_6
REMARK    5  A    between atoms: C_4  and  C_5
REMARK    6  A    between atoms: C_10  and  N_14
REMARK                            x       y       z     vdW  Elec       q    Type
REMARK                         _______ _______ _______ _____ _____    ______ ____
ROOT
ATOM      1  N   UNL     1     -30.673 -11.986  17.659  0.00  0.00    -0.311 N 
ATOM      2  C   UNL     1     -29.496 -12.305  18.413  0.00  0.00    +0.217 A 
ATOM      3  N   UNL     1     -28.279 -11.842  18.027  0.00  0.00    -0.221 NA
ATOM      4  C   UNL     1     -27.159 -12.138  18.733  0.00  0.00    +0.150 A 
ATOM      5  C   UNL     1     -27.239 -12.924  19.890  0.00  0.00    +0.184 A 
ATOM      6  C   UNL     1     -28.508 -13.420  20.261  0.00  0.00    +0.152 A 
ATOM      7  N   UNL     1     -28.678 -14.311  21.368  0.00  0.00    -0.341 N 
ATOM      8  N   UNL     1     -29.597 -13.089  19.517  0.00  0.00    -0.198 NA
ATOM      9  H   UNL     1     -31.590 -12.348  18.008  0.00  0.00    +0.149 HD
ATOM     10  H   UNL     1     -29.639 -14.595  21.660  0.00  0.00    +0.144 HD
ATOM     11  H   UNL     1     -27.873 -14.789  21.826  0.00  0.00    +0.144 HD
ENDROOT
BRANCH   5  12
ATOM     12  N   UNL     1     -26.055 -13.173  20.665  0.00  0.00    +0.061 N 
ATOM     13  O   UNL     1     -26.166 -13.592  21.971  0.00  0.00    -0.126 OA
ATOM     14  O   UNL     1     -24.938 -13.223  20.110  0.00  0.00    -0.126 OA
ENDBRANCH   5  12
BRANCH   1  15
ATOM     15  C   UNL     1     -30.633 -11.148  16.454  0.00  0.00    +0.073 C 
BRANCH  15  17
ATOM     16  C   UNL     1     -31.126 -13.190  14.990  0.00  0.00    +0.006 C 
ATOM     17  C   UNL     1     -31.544 -11.766  15.358  0.00  0.00    +0.019 C 
ENDBRANCH  15  17
BRANCH  15  18
ATOM     18  C   UNL     1     -31.053  -9.705  16.818  0.00  0.00    +0.019 C 
ATOM     19  C   UNL     1     -32.567  -9.527  16.918  0.00  0.00    +0.006 C 
ENDBRANCH  15  18
ENDBRANCH   1  15
TORSDOF 4
ENDMDL
MODEL 3
REMARK VINA RESULT:    -3.519      3.595      5.073
REMARK INTER + INTRA:          -4.956
REMARK INTER:                  -4.570
REMARK INTRA:                  -0.386
REMARK UNBOUND:                -0.614
REMARK  Name = 
REMARK  6 active torsions:
REMARK  status: ('A' for Active; 'I' for Inactive)
REMARK    1  A    between atoms: C_1  and  C_2
REMARK    2  A    between atoms: C_2  and  C_3
REMARK    3  A    between atoms: C_3  and  C_4
REMARK    4  A    between atoms: C_3  and  N_6
REMARK    5  A    between atoms: C_4  and  C_5
REMARK    6  A    between atoms: C_10  and  N_14
REMARK                            x       y       z     vdW  Elec       q    Type
REMARK                         _______ _______ _______ _____ _____    ______ ____
ROOT
ATOM      1  N   UNL     1     -29.037 -14.078  15.087  0.00  0.00    -0.311 N 
ATOM      2  C   UNL     1     -29.270 -13.804  16.475  0.00  0.00    +0.217 A 
ATOM      3  N   UNL     1     -30.507 -13.960  17.015  0.00  0.00    -0.221 NA
ATOM      4  C   UNL     1     -30.738 -13.704  18.326  0.00  0.00    +0.150 A 
ATOM      5  C   UNL     1     -29.693 -13.281  19.159  0.00  0.00    +0.184 A 
ATOM      6  C   UNL     1     -28.420 -13.097  18.576  0.00  0.00    +0.152 A 
ATOM      7  N   UNL     1     -27.315 -12.574  19.319  0.00  0.00    -0.341 N 
ATOM      8  N   UNL     1     -28.246 -13.371  17.255  0.00  0.00    -0.198 NA
ATOM      9  H   UNL     1     -28.064 -13.964  14.723  0.00  0.00    +0.149 HD
ATOM     10  H   UNL     1     -26.371 -12.525  18.877  0.00  0.00    +0.144 HD
ATOM     11  H   UNL     1     -27.436 -12.123  20.252  0.00  0.00    +0.144 HD
ENDROOT
BRANCH   5  12
ATOM     12  N   UNL     1     -29.937 -13.077  20.560  0.00  0.00    +0.061 N 
ATOM     13  O   UNL     1     -31.140 -12.554  20.978  0.00  0.00    -0.126 OA
ATOM     14  O   UNL     1     -29.165 -13.563  21.412  0.00  0.00    -0.126 OA
ENDBRANCH   5  12
BRANCH   1  15
ATOM     15  C   UNL     1     -30.100 -14.544  14.187  0.00  0.00    +0.073 C 
BRANCH  15  17
ATOM     16  C   UNL     1     -31.728 -13.429  12.555  0.00  0.00    +0.006 C 
ATOM     17  C   UNL     1     -31.130 -13.402  13.962  0.00  0.00    +0.019 C 
ENDBRANCH  15  17
BRANCH  15  18
ATOM     18  C   UNL     1     -29.472 -15.035  12.862  0.00  0.00    +0.019 C 
ATOM     19  C   UNL     1     -27.989 -14.690  12.736  0.00  0.00    +0.006 C 
ENDBRANCH  15  18
ENDBRANCH   1  15
TORSDOF 4
ENDMDL
MODEL 4
REMARK VINA RESULT:    -3.511      3.157      4.280
REMARK INTER + INTRA:          -4.947
REMARK INTER:                  -4.312
REMARK INTRA:                  -0.634
REMARK UNBOUND:                -0.614
REMARK  Name = 
REMARK  6 active torsions:
REMARK  status: ('A' for Active; 'I' for Inactive)
REMARK    1  A    between atoms: C_1  and  C_2
REMARK    2  A    between atoms: C_2  and  C_3
REMARK    3  A    between atoms: C_3  and  C_4
REMARK    4  A    between atoms: C_3  and  N_6
REMARK    5  A    between atoms: C_4  and  C_5
REMARK    6  A    between atoms: C_10  and  N_14
REMARK                            x       y       z     vdW  Elec       q    Type
REMARK                         _______ _______ _______ _____ _____    ______ ____
ROOT
ATOM      1  N   UNL     1     -31.677 -13.037  15.000  0.00  0.00    -0.311 N 
ATOM      2  C   UNL     1     -30.912 -12.561  16.115  0.00  0.00    +0.217 A 
ATOM      3  N   UNL     1     -30.701 -11.231  16.294  0.00  0.00    -0.221 NA
ATOM      4  C   UNL     1     -29.979 -10.769  17.345  0.00  0.00    +0.150 A 
ATOM      5  C   UNL     1     -29.443 -11.663  18.282  0.00  0.00    +0.184 A 
ATOM      6  C   UNL     1     -29.648 -13.043  18.066  0.00  0.00    +0.152 A 
ATOM      7  N   UNL     1     -29.059 -14.037  18.909  0.00  0.00    -0.341 N 
ATOM      8  N   UNL     1     -30.382 -13.449  16.995  0.00  0.00    -0.198 NA
ATOM      9  H   UNL     1     -31.830 -14.068  14.917  0.00  0.00    +0.149 HD
ATOM     10  H   UNL     1     -29.295 -15.044  18.766  0.00  0.00    +0.144 HD
ATOM     11  H   UNL     1     -28.302 -13.811  19.591  0.00  0.00    +0.144 HD
ENDROOT
BRANCH   5  12
ATOM     12  N   UNL     1     -28.738 -11.157  19.427  0.00  0.00    +0.061 N 
ATOM     13  O   UNL     1     -29.346 -10.245  20.259  0.00  0.00    -0.126 OA
ATOM     14  O   UNL     1     -27.670 -11.689  19.796  0.00  0.00    -0.126 OA
ENDBRANCH   5  12
BRANCH   1  15
ATOM     15  C   UNL     1     -32.272 -12.132  14.009  0.00  0.00    +0.073 C 
BRANCH  15  17
ATOM     16  C   UNL     1     -33.611 -12.817  11.938  0.00  0.00    +0.006 C 
ATOM     17  C   UNL     1     -32.237 -12.797  12.606  0.00  0.00    +0.019 C 
ENDBRANCH  15  17
BRANCH  15  18
ATOM     18  C   UNL     1     -33.710 -11.766  14.447  0.00  0.00    +0.019 C 
ATOM     19  C   UNL     1     -33.861 -10.300  14.849  0.00  0.00    +0.006 C 
ENDBRANCH  15  18
ENDBRANCH   1  15
TORSDOF 4
ENDMDL
MODEL 5
REMARK VINA RESULT:    -3.453      3.367      4.537
REMARK INTER + INTRA:          -4.874
REMARK INTER:                  -4.224
REMARK INTRA:                  -0.650
REMARK UNBOUND:                -0.614
REMARK  Name = 
REMARK  6 active torsions:
REMARK  status: ('A' for Active; 'I' for Inactive)
REMARK    1  A    between atoms: C_1  and  C_2
REMARK    2  A    between atoms: C_2  and  C_3
REMARK    3  A    between atoms: C_3  and  C_4
REMARK    4  A    between atoms: C_3  and  N_6
REMARK    5  A    between atoms: C_4  and  C_5
REMARK    6  A    between atoms: C_10  and  N_14
REMARK                            x       y       z     vdW  Elec       q    Type
REMARK                         _______ _______ _______ _____ _____    ______ ____
ROOT
ATOM      1  N   UNL     1     -33.098 -12.625  14.967  0.00  0.00    -0.311 N 
ATOM      2  C   UNL     1     -31.950 -12.539  15.821  0.00  0.00    +0.217 A 
ATOM      3  N   UNL     1     -31.261 -11.375  15.942  0.00  0.00    -0.221 NA
ATOM      4  C   UNL     1     -30.174 -11.283  16.747  0.00  0.00    +0.150 A 
ATOM      5  C   UNL     1     -29.744 -12.394  17.486  0.00  0.00    +0.184 A 
ATOM      6  C   UNL     1     -30.456 -13.604  17.327  0.00  0.00    +0.152 A 
ATOM      7  N   UNL     1     -30.037 -14.817  17.960  0.00  0.00    -0.341 N 
ATOM      8  N   UNL     1     -31.540 -13.637  16.507  0.00  0.00    -0.198 NA
ATOM      9  H   UNL     1     -33.609 -13.536  14.922  0.00  0.00    +0.149 HD
ATOM     10  H   UNL     1     -30.631 -15.672  17.882  0.00  0.00    +0.144 HD
ATOM     11  H   UNL     1     -29.097 -14.919  18.399  0.00  0.00    +0.144 HD
ENDROOT
BRANCH   5  12
ATOM     12  N   UNL     1     -28.632 -12.265  18.386  0.00  0.00    +0.061 N 
ATOM     13  O   UNL     1     -27.705 -13.277  18.481  0.00  0.00    -0.126 OA
ATOM     14  O   UNL     1     -28.378 -11.165  18.920  0.00  0.00    -0.126 OA
ENDBRANCH   5  12
BRANCH   1  15
ATOM     15  C   UNL     1     -33.591 -11.477  14.193  0.00  0.00    +0.073 C 
BRANCH  15  17
ATOM     16  C   UNL     1     -33.407 -13.045  12.177  0.00  0.00    +0.006 C 
ATOM     17  C   UNL     1     -34.249 -11.978  12.878  0.00  0.00    +0.019 C 
ENDBRANCH  15  17
BRANCH  15  18
ATOM     18  C   UNL     1     -34.573 -10.657  15.062  0.00  0.00    +0.019 C 
ATOM     19  C   UNL     1     -34.212  -9.174  15.139  0.00  0.00    +0.006 C 
ENDBRANCH  15  18
ENDBRANCH   1  15
TORSDOF 4
ENDMDL
MODEL 6
REMARK VINA RESULT:    -3.356      1.971      2.682
REMARK INTER + INTRA:          -4.755
REMARK INTER:                  -4.148
REMARK INTRA:                  -0.606
REMARK UNBOUND:                -0.614
REMARK  Name = 
REMARK  6 active torsions:
REMARK  status: ('A' for Active; 'I' for Inactive)
REMARK    1  A    between atoms: C_1  and  C_2
REMARK    2  A    between atoms: C_2  and  C_3
REMARK    3  A    between atoms: C_3  and  C_4
REMARK    4  A    between atoms: C_3  and  N_6
REMARK    5  A    between atoms: C_4  and  C_5
REMARK    6  A    between atoms: C_10  and  N_14
REMARK                            x       y       z     vdW  Elec       q    Type
REMARK                         _______ _______ _______ _____ _____    ______ ____
ROOT
ATOM      1  N   UNL     1     -32.655 -11.528  18.365  0.00  0.00    -0.311 N 
ATOM      2  C   UNL     1     -31.227 -11.620  18.456  0.00  0.00    +0.217 A 
ATOM      3  N   UNL     1     -30.439 -10.585  18.066  0.00  0.00    -0.221 NA
ATOM      4  C   UNL     1     -29.087 -10.663  18.148  0.00  0.00    +0.150 A 
ATOM      5  C   UNL     1     -28.474 -11.817  18.654  0.00  0.00    +0.184 A 
ATOM      6  C   UNL     1     -29.307 -12.893  19.030  0.00  0.00    +0.152 A 
ATOM      7  N   UNL     1     -28.774 -14.148  19.464  0.00  0.00    -0.341 N 
ATOM      8  N   UNL     1     -30.657 -12.759  18.927  0.00  0.00    -0.198 NA
ATOM      9  H   UNL     1     -33.220 -12.342  18.698  0.00  0.00    +0.149 HD
ATOM     10  H   UNL     1     -29.419 -14.893  19.807  0.00  0.00    +0.144 HD
ATOM     11  H   UNL     1     -27.769 -14.398  19.338  0.00  0.00    +0.144 HD
ENDROOT
BRANCH   5  12
ATOM     12  N   UNL     1     -27.045 -11.859  18.798  0.00  0.00    +0.061 N 
ATOM     13  O   UNL     1     -26.449 -12.940  19.407  0.00  0.00    -0.126 OA
ATOM     14  O   UNL     1     -26.325 -11.037  18.193  0.00  0.00    -0.126 OA
ENDBRANCH   5  12
BRANCH   1  15
ATOM     15  C   UNL     1     -33.335 -10.328  17.860  0.00  0.00    +0.073 C 
BRANCH  15  17
ATOM     16  C   UNL     1     -34.224 -11.791  15.957  0.00  0.00    +0.006 C 
ATOM     17  C   UNL     1     -34.571 -10.745  17.016  0.00  0.00    +0.019 C 
ENDBRANCH  15  17
BRANCH  15  18
ATOM     18  C   UNL     1     -33.719  -9.418  19.050  0.00  0.00    +0.019 C 
ATOM     19  C   UNL     1     -32.992  -8.074  19.038  0.00  0.00    +0.006 C 
ENDBRANCH  15  18
ENDBRANCH   1  15
TORSDOF 4
ENDMDL
MODEL 7
REMARK VINA RESULT:    -3.338      5.120      6.463
REMARK INTER + INTRA:          -4.732
REMARK INTER:                  -4.136
REMARK INTRA:                  -0.596
REMARK UNBOUND:                -0.614
REMARK  Name = 
REMARK  6 active torsions:
REMARK  status: ('A' for Active; 'I' for Inactive)
REMARK    1  A    between atoms: C_1  and  C_2
REMARK    2  A    between atoms: C_2  and  C_3
REMARK    3  A    between atoms: C_3  and  C_4
REMARK    4  A    between atoms: C_3  and  N_6
REMARK    5  A    between atoms: C_4  and  C_5
REMARK    6  A    between atoms: C_10  and  N_14
REMARK                            x       y       z     vdW  Elec       q    Type
REMARK                         _______ _______ _______ _____ _____    ______ ____
ROOT
ATOM      1  N   UNL     1     -32.623 -12.098  14.503  0.00  0.00    -0.311 N 
ATOM      2  C   UNL     1     -32.214 -11.248  15.582  0.00  0.00    +0.217 A 
ATOM      3  N   UNL     1     -30.920 -10.848  15.697  0.00  0.00    -0.221 NA
ATOM      4  C   UNL     1     -30.522 -10.044  16.714  0.00  0.00    +0.150 A 
ATOM      5  C   UNL     1     -31.448  -9.597  17.667  0.00  0.00    +0.184 A 
ATOM      6  C   UNL     1     -32.782 -10.044  17.547  0.00  0.00    +0.152 A 
ATOM      7  N   UNL     1     -33.778  -9.724  18.524  0.00  0.00    -0.341 N 
ATOM      8  N   UNL     1     -33.125 -10.849  16.506  0.00  0.00    -0.198 NA
ATOM      9  H   UNL     1     -33.633 -12.362  14.444  0.00  0.00    +0.149 HD
ATOM     10  H   UNL     1     -34.770 -10.007  18.362  0.00  0.00    +0.144 HD
ATOM     11  H   UNL     1     -33.535  -9.323  19.455  0.00  0.00    +0.144 HD
ENDROOT
BRANCH   5  12
ATOM     12  N   UNL     1     -31.026  -8.692  18.700  0.00  0.00    +0.061 N 
ATOM     13  O   UNL     1     -31.886  -7.716  19.149  0.00  0.00    -0.126 OA
ATOM     14  O   UNL     1     -29.978  -8.912  19.341  0.00  0.00    -0.126 OA
ENDBRANCH   5  12
BRANCH   1  15
ATOM     15  C   UNL     1     -31.688 -12.570  13.474  0.00  0.00    +0.073 C 
BRANCH  15  17
ATOM     16  C   UNL     1     -29.899 -14.336  12.988  0.00  0.00    +0.006 C 
ATOM     17  C   UNL     1     -30.941 -13.832  13.987  0.00  0.00    +0.019 C 
ENDBRANCH  15  17
BRANCH  15  18
ATOM     18  C   UNL     1     -32.462 -12.841  12.162  0.00  0.00    +0.019 C 
ATOM     19  C   UNL     1     -33.976 -12.718  12.323  0.00  0.00    +0.006 C 
ENDBRANCH  15  18
ENDBRANCH   1  15
TORSDOF 4
ENDMDL
MODEL 8
REMARK VINA RESULT:    -3.302      5.490      6.983
REMARK INTER + INTRA:          -4.689
REMARK INTER:                  -4.022
REMARK INTRA:                  -0.666
REMARK UNBOUND:                -0.614
REMARK  Name = 
REMARK  6 active torsions:
REMARK  status: ('A' for Active; 'I' for Inactive)
REMARK    1  A    between atoms: C_1  and  C_2
REMARK    2  A    between atoms: C_2  and  C_3
REMARK    3  A    between atoms: C_3  and  C_4
REMARK    4  A    between atoms: C_3  and  N_6
REMARK    5  A    between atoms: C_4  and  C_5
REMARK    6  A    between atoms: C_10  and  N_14
REMARK                            x       y       z     vdW  Elec       q    Type
REMARK                         _______ _______ _______ _____ _____    ______ ____
ROOT
ATOM      1  N   UNL     1     -31.653 -11.892  13.936  0.00  0.00    -0.311 N 
ATOM      2  C   UNL     1     -32.095 -11.567  15.261  0.00  0.00    +0.217 A 
ATOM      3  N   UNL     1     -32.663 -12.512  16.054  0.00  0.00    -0.221 NA
ATOM      4  C   UNL     1     -33.084 -12.215  17.309  0.00  0.00    +0.150 A 
ATOM      5  C   UNL     1     -32.928 -10.919  17.819  0.00  0.00    +0.184 A 
ATOM      6  C   UNL     1     -32.360  -9.942  16.971  0.00  0.00    +0.152 A 
ATOM      7  N   UNL     1     -32.250  -8.571  17.364  0.00  0.00    -0.341 N 
ATOM      8  N   UNL     1     -31.954 -10.298  15.723  0.00  0.00    -0.198 NA
ATOM      9  H   UNL     1     -31.203 -11.137  13.371  0.00  0.00    +0.149 HD
ATOM     10  H   UNL     1     -31.755  -7.893  16.743  0.00  0.00    +0.144 HD
ATOM     11  H   UNL     1     -32.751  -8.189  18.194  0.00  0.00    +0.144 HD
ENDROOT
BRANCH   5  12
ATOM     12  N   UNL     1     -33.316 -10.635  19.173  0.00  0.00    +0.061 N 
ATOM     13  O   UNL     1     -33.082 -11.562  20.162  0.00  0.00    -0.126 OA
ATOM     14  O   UNL     1     -33.666  -9.481  19.500  0.00  0.00    -0.126 OA
ENDBRANCH   5  12
BRANCH   1  15
ATOM     15  C   UNL     1     -31.781 -13.243  13.374  0.00  0.00    +0.073 C 
BRANCH  15  17
ATOM     16  C   UNL     1     -33.831 -12.689  11.944  0.00  0.00    +0.006 C 
ATOM     17  C   UNL     1     -32.376 -13.159  11.941  0.00  0.00    +0.019 C 
ENDBRANCH  15  17
BRANCH  15  18
ATOM     18  C   UNL     1     -30.399 -13.939  13.393  0.00  0.00    +0.019 C 
ATOM     19  C   UNL     1     -30.164 -14.771  14.653  0.00  0.00    +0.006 C 
ENDBRANCH  15  18
ENDBRANCH   1  15
TORSDOF 4
ENDMDL
