MODEL 1
REMARK VINA RESULT:    -3.613      0.000      0.000
REMARK INTER + INTRA:          -5.072
REMARK INTER:                  -4.457
REMARK INTRA:                  -0.615
REMARK UNBOUND:                -0.615
REMARK  Name = 
REMARK  6 active torsions:
REMARK  status: ('A' for Active; 'I' for Inactive)
REMARK    1  A    between atoms: C_1  and  C_2
REMARK    2  A    between atoms: C_2  and  C_3
REMARK    3  A    between atoms: C_3  and  C_4
REMARK    4  A    between atoms: C_3  and  N_6
REMARK    5  A    between atoms: C_4  and  C_5
REMARK    6  A    between atoms: C_10  and  N_14
REMARK                            x       y       z     vdW  Elec       q    Type
REMARK                         _______ _______ _______ _____ _____    ______ ____
ROOT
ATOM      1  N   UNL     1     -31.697 -12.941  14.885  0.00  0.00    -0.311 N 
ATOM      2  C   UNL     1     -30.913 -12.497  16.000  0.00  0.00    +0.217 A 
ATOM      3  N   UNL     1     -30.642 -11.177  16.175  0.00  0.00    -0.221 NA
ATOM      4  C   UNL     1     -29.902 -10.745  17.226  0.00  0.00    +0.150 A 
ATOM      5  C   UNL     1     -29.408 -11.659  18.167  0.00  0.00    +0.184 A 
ATOM      6  C   UNL     1     -29.675 -13.030  17.954  0.00  0.00    +0.152 A 
ATOM      7  N   UNL     1     -29.132 -14.047  18.801  0.00  0.00    -0.341 N 
ATOM      8  N   UNL     1     -30.425 -13.405  16.883  0.00  0.00    -0.198 NA
ATOM      9  H   UNL     1     -31.896 -13.965  14.804  0.00  0.00    +0.149 HD
ATOM     10  H   UNL     1     -29.414 -15.042  18.660  0.00  0.00    +0.144 HD
ATOM     11  H   UNL     1     -28.367 -13.853  19.483  0.00  0.00    +0.144 HD
ENDROOT
BRANCH   5  12
ATOM     12  N   UNL     1     -28.682 -11.182  19.311  0.00  0.00    +0.061 N 
ATOM     13  O   UNL     1     -29.334 -10.457  20.282  0.00  0.00    -0.126 OA
ATOM     14  O   UNL     1     -27.527 -11.595  19.542  0.00  0.00    -0.126 OA
ENDBRANCH   5  12
BRANCH   1  15
ATOM     15  C   UNL     1     -32.249 -12.012  13.891  0.00  0.00    +0.073 C 
BRANCH  15  17
ATOM     16  C   UNL     1     -33.372 -13.229  11.938  0.00  0.00    +0.006 C 
ATOM     17  C   UNL     1     -32.078 -12.610  12.467  0.00  0.00    +0.019 C 
ENDBRANCH  15  17
BRANCH  15  18
ATOM     18  C   UNL     1     -33.730 -11.721  14.229  0.00  0.00    +0.019 C 
ATOM     19  C   UNL     1     -33.993 -10.252  14.556  0.00  0.00    +0.006 C 
ENDBRANCH  15  18
ENDBRANCH   1  15
TORSDOF 4
ENDMDL
MODEL 2
REMARK VINA RESULT:    -3.595      3.542      4.462
REMARK INTER + INTRA:          -5.051
REMARK INTER:                  -4.714
REMARK INTRA:                  -0.336
REMARK UNBOUND:                -0.615
REMARK  Name = 
REMARK  6 active torsions:
REMARK  status: ('A' for Active; 'I' for Inactive)
REMARK    1  A    between atoms: C_1  and  C_2
REMARK    2  A    between atoms: C_2  and  C_3
REMARK    3  A    between atoms: C_3  and  C_4
REMARK    4  A    between atoms: C_3  and  N_6
REMARK    5  A    between atoms: C_4  and  C_5
REMARK    6  A    between atoms: C_10  and  N_14
REMARK                            x       y       z     vdW  Elec       q    Type
REMARK                         _______ _______ _______ _____ _____    ______ ____
ROOT
ATOM      1  N   UNL     1     -31.268 -13.116  19.724  0.00  0.00    -0.311 N 
ATOM      2  C   UNL     1     -29.844 -13.158  19.880  0.00  0.00    +0.217 A 
ATOM      3  N   UNL     1     -29.033 -12.459  19.044  0.00  0.00    -0.221 NA
ATOM      4  C   UNL     1     -27.684 -12.492  19.183  0.00  0.00    +0.150 A 
ATOM      5  C   UNL     1     -27.097 -13.245  20.208  0.00  0.00    +0.184 A 
ATOM      6  C   UNL     1     -27.953 -13.988  21.051  0.00  0.00    +0.152 A 
ATOM      7  N   UNL     1     -27.446 -14.864  22.062  0.00  0.00    -0.341 N 
ATOM      8  N   UNL     1     -29.299 -13.915  20.866  0.00  0.00    -0.198 NA
ATOM      9  H   UNL     1     -31.852 -13.654  20.404  0.00  0.00    +0.149 HD
ATOM     10  H   UNL     1     -28.108 -15.337  22.717  0.00  0.00    +0.144 HD
ATOM     11  H   UNL     1     -26.444 -15.148  22.100  0.00  0.00    +0.144 HD
ENDROOT
BRANCH   5  12
ATOM     12  N   UNL     1     -25.672 -13.218  20.386  0.00  0.00    +0.061 N 
ATOM     13  O   UNL     1     -25.092 -13.954  21.393  0.00  0.00    -0.126 OA
ATOM     14  O   UNL     1     -24.938 -12.711  19.512  0.00  0.00    -0.126 OA
ENDBRANCH   5  12
BRANCH   1  15
ATOM     15  C   UNL     1     -31.922 -12.322  18.675  0.00  0.00    +0.073 C 
BRANCH  15  17
ATOM     16  C   UNL     1     -31.323 -14.003  16.840  0.00  0.00    +0.006 C 
ATOM     17  C   UNL     1     -32.451 -13.265  17.559  0.00  0.00    +0.019 C 
ENDBRANCH  15  17
BRANCH  15  18
ATOM     18  C   UNL     1     -33.049 -11.470  19.304  0.00  0.00    +0.019 C 
ATOM     19  C   UNL     1     -32.618 -10.755  20.584  0.00  0.00    +0.006 C 
ENDBRANCH  15  18
ENDBRANCH   1  15
TORSDOF 4
ENDMDL
MODEL 3
REMARK VINA RESULT:    -3.566      2.425      3.464
REMARK INTER + INTRA:          -5.014
REMARK INTER:                  -4.529
REMARK INTRA:                  -0.485
REMARK UNBOUND:                -0.615
REMARK  Name = 
REMARK  6 active torsions:
REMARK  status: ('A' for Active; 'I' for Inactive)
REMARK    1  A    between atoms: C_1  and  C_2
REMARK    2  A    between atoms: C_2  and  C_3
REMARK    3  A    between atoms: C_3  and  C_4
REMARK    4  A    between atoms: C_3  and  N_6
REMARK    5  A    between atoms: C_4  and  C_5
REMARK    6  A    between atoms: C_10  and  N_14
REMARK                            x       y       z     vdW  Elec       q    Type
REMARK                         _______ _______ _______ _____ _____    ______ ____
ROOT
ATOM      1  N   UNL     1     -29.010 -14.011  15.276  0.00  0.00    -0.311 N 
ATOM      2  C   UNL     1     -29.232 -13.730  16.664  0.00  0.00    +0.217 A 
ATOM      3  N   UNL     1     -30.460 -13.903  17.218  0.00  0.00    -0.221 NA
ATOM      4  C   UNL     1     -30.681 -13.640  18.531  0.00  0.00    +0.150 A 
ATOM      5  C   UNL     1     -29.635 -13.193  19.349  0.00  0.00    +0.184 A 
ATOM      6  C   UNL     1     -28.372 -12.992  18.750  0.00  0.00    +0.152 A 
ATOM      7  N   UNL     1     -27.268 -12.444  19.477  0.00  0.00    -0.341 N 
ATOM      8  N   UNL     1     -28.207 -13.274  17.430  0.00  0.00    -0.198 NA
ATOM      9  H   UNL     1     -28.043 -13.882  14.900  0.00  0.00    +0.149 HD
ATOM     10  H   UNL     1     -26.330 -12.383  19.024  0.00  0.00    +0.144 HD
ATOM     11  H   UNL     1     -27.386 -11.989  20.407  0.00  0.00    +0.144 HD
ENDROOT
BRANCH   5  12
ATOM     12  N   UNL     1     -29.867 -12.982  20.751  0.00  0.00    +0.061 N 
ATOM     13  O   UNL     1     -28.848 -13.185  21.653  0.00  0.00    -0.126 OA
ATOM     14  O   UNL     1     -30.910 -12.416  21.139  0.00  0.00    -0.126 OA
ENDBRANCH   5  12
BRANCH   1  15
ATOM     15  C   UNL     1     -30.075 -14.501  14.391  0.00  0.00    +0.073 C 
BRANCH  15  17
ATOM     16  C   UNL     1     -31.628 -13.399  12.680  0.00  0.00    +0.006 C 
ATOM     17  C   UNL     1     -31.087 -13.356  14.109  0.00  0.00    +0.019 C 
ENDBRANCH  15  17
BRANCH  15  18
ATOM     18  C   UNL     1     -29.447 -15.059  13.093  0.00  0.00    +0.019 C 
ATOM     19  C   UNL     1     -27.926 -14.920  13.053  0.00  0.00    +0.006 C 
ENDBRANCH  15  18
ENDBRANCH   1  15
TORSDOF 4
ENDMDL
MODEL 4
REMARK VINA RESULT:    -3.560      2.524      3.518
REMARK INTER + INTRA:          -5.007
REMARK INTER:                  -4.336
REMARK INTRA:                  -0.671
REMARK UNBOUND:                -0.615
REMARK  Name = 
REMARK  6 active torsions:
REMARK  status: ('A' for Active; 'I' for Inactive)
REMARK    1  A    between atoms: C_1  and  C_2
REMARK    2  A    between atoms: C_2  and  C_3
REMARK    3  A    between atoms: C_3  and  C_4
REMARK    4  A    between atoms: C_3  and  N_6
REMARK    5  A    between atoms: C_4  and  C_5
REMARK    6  A    between atoms: C_10  and  N_14
REMARK                            x       y       z     vdW  Elec       q    Type
REMARK                         _______ _______ _______ _____ _____    ______ ____
ROOT
ATOM      1  N   UNL     1     -30.623 -11.798  17.838  0.00  0.00    -0.311 N 
ATOM      2  C   UNL     1     -29.442 -12.213  18.536  0.00  0.00    +0.217 A 
ATOM      3  N   UNL     1     -28.214 -11.802  18.126  0.00  0.00    -0.221 NA
ATOM      4  C   UNL     1     -27.090 -12.189  18.780  0.00  0.00    +0.150 A 
ATOM      5  C   UNL     1     -27.176 -13.017  19.907  0.00  0.00    +0.184 A 
ATOM      6  C   UNL     1     -28.458 -13.457  20.303  0.00  0.00    +0.152 A 
ATOM      7  N   UNL     1     -28.642 -14.382  21.378  0.00  0.00    -0.341 N 
ATOM      8  N   UNL     1     -29.551 -13.036  19.611  0.00  0.00    -0.198 NA
ATOM      9  H   UNL     1     -31.547 -12.123  18.204  0.00  0.00    +0.149 HD
ATOM     10  H   UNL     1     -29.607 -14.625  21.693  0.00  0.00    +0.144 HD
ATOM     11  H   UNL     1     -27.850 -14.923  21.788  0.00  0.00    +0.144 HD
ENDROOT
BRANCH   5  12
ATOM     12  N   UNL     1     -25.983 -13.364  20.629  0.00  0.00    +0.061 N 
ATOM     13  O   UNL     1     -26.044 -13.593  21.984  0.00  0.00    -0.126 OA
ATOM     14  O   UNL     1     -24.940 -13.669  20.013  0.00  0.00    -0.126 OA
ENDBRANCH   5  12
BRANCH   1  15
ATOM     15  C   UNL     1     -30.575 -10.914  16.666  0.00  0.00    +0.073 C 
BRANCH  15  17
ATOM     16  C   UNL     1     -31.018 -12.837  15.035  0.00  0.00    +0.006 C 
ATOM     17  C   UNL     1     -31.495 -11.479  15.549  0.00  0.00    +0.019 C 
ENDBRANCH  15  17
BRANCH  15  18
ATOM     18  C   UNL     1     -30.978  -9.482  17.087  0.00  0.00    +0.019 C 
ATOM     19  C   UNL     1     -32.190  -9.447  18.017  0.00  0.00    +0.006 C 
ENDBRANCH  15  18
ENDBRANCH   1  15
TORSDOF 4
ENDMDL
MODEL 5
REMARK VINA RESULT:    -3.535      1.671      2.269
REMARK INTER + INTRA:          -4.976
REMARK INTER:                  -4.330
REMARK INTRA:                  -0.647
REMARK UNBOUND:                -0.615
REMARK  Name = 
REMARK  6 active torsions:
REMARK  status: ('A' for Active; 'I' for Inactive)
REMARK    1  A    between atoms: C_1  and  C_2
REMARK    2  A    between atoms: C_2  and  C_3
REMARK    3  A    between atoms: C_3  and  C_4
REMARK    4  A    between atoms: C_3  and  N_6
REMARK    5  A    between atoms: C_4  and  C_5
REMARK    6  A    between atoms: C_10  and  N_14
REMARK                            x       y       z     vdW  Elec       q    Type
REMARK                         _______ _______ _______ _____ _____    ______ ____
ROOT
ATOM      1  N   UNL     1     -31.115 -14.034  15.255  0.00  0.00    -0.311 N 
ATOM      2  C   UNL     1     -30.740 -13.329  16.445  0.00  0.00    +0.217 A 
ATOM      3  N   UNL     1     -30.167 -12.099  16.371  0.00  0.00    -0.221 NA
ATOM      4  C   UNL     1     -29.808 -11.423  17.491  0.00  0.00    +0.150 A 
ATOM      5  C   UNL     1     -30.035 -11.980  18.757  0.00  0.00    +0.184 A 
ATOM      6  C   UNL     1     -30.606 -13.270  18.815  0.00  0.00    +0.152 A 
ATOM      7  N   UNL     1     -30.785 -13.964  20.053  0.00  0.00    -0.341 N 
ATOM      8  N   UNL     1     -30.948 -13.901  17.659  0.00  0.00    -0.198 NA
ATOM      9  H   UNL     1     -31.572 -14.968  15.363  0.00  0.00    +0.149 HD
ATOM     10  H   UNL     1     -31.281 -14.883  20.064  0.00  0.00    +0.144 HD
ATOM     11  H   UNL     1     -30.333 -13.648  20.938  0.00  0.00    +0.144 HD
ENDROOT
BRANCH   5  12
ATOM     12  N   UNL     1     -29.712 -11.225  19.936  0.00  0.00    +0.061 N 
ATOM     13  O   UNL     1     -29.215 -11.867  21.047  0.00  0.00    -0.126 OA
ATOM     14  O   UNL     1     -29.672  -9.978  19.895  0.00  0.00    -0.126 OA
ENDBRANCH   5  12
BRANCH   1  15
ATOM     15  C   UNL     1     -30.913 -13.474  13.912  0.00  0.00    +0.073 C 
BRANCH  15  17
ATOM     16  C   UNL     1     -28.752 -14.534  13.041  0.00  0.00    +0.006 C 
ATOM     17  C   UNL     1     -30.279 -14.551  12.988  0.00  0.00    +0.019 C 
ENDBRANCH  15  17
BRANCH  15  18
ATOM     18  C   UNL     1     -32.263 -12.955  13.365  0.00  0.00    +0.019 C 
ATOM     19  C   UNL     1     -32.551 -13.419  11.938  0.00  0.00    +0.006 C 
ENDBRANCH  15  18
ENDBRANCH   1  15
TORSDOF 4
ENDMDL
MODEL 6
REMARK VINA RESULT:    -3.439      2.209      3.465
REMARK INTER + INTRA:          -4.858
REMARK INTER:                  -4.590
REMARK INTRA:                  -0.267
REMARK UNBOUND:                -0.615
REMARK  Name = 
REMARK  6 active torsions:
REMARK  status: ('A' for Active; 'I' for Inactive)
REMARK    1  A    between atoms: C_1  and  C_2
REMARK    2  A    between atoms: C_2  and  C_3
REMARK    3  A    between atoms: C_3  and  C_4
REMARK    4  A    between atoms: C_3  and  N_6
REMARK    5  A    between atoms: C_4  and  C_5
REMARK    6  A    between atoms: C_10  and  N_14
REMARK                            x       y       z     vdW  Elec       q    Type
REMARK                         _______ _______ _______ _____ _____    ______ ____
ROOT
ATOM      1  N   UNL     1     -32.129 -11.793  14.132  0.00  0.00    -0.311 N 
ATOM      2  C   UNL     1     -31.787 -11.058  15.313  0.00  0.00    +0.217 A 
ATOM      3  N   UNL     1     -30.653 -11.344  16.004  0.00  0.00    -0.221 NA
ATOM      4  C   UNL     1     -30.319 -10.654  17.123  0.00  0.00    +0.150 A 
ATOM      5  C   UNL     1     -31.139  -9.615  17.585  0.00  0.00    +0.184 A 
ATOM      6  C   UNL     1     -32.327  -9.349  16.870  0.00  0.00    +0.152 A 
ATOM      7  N   UNL     1     -33.277  -8.377  17.317  0.00  0.00    -0.341 N 
ATOM      8  N   UNL     1     -32.610 -10.072  15.754  0.00  0.00    -0.198 NA
ATOM      9  H   UNL     1     -33.001 -11.522  13.622  0.00  0.00    +0.149 HD
ATOM     10  H   UNL     1     -34.106  -8.153  16.723  0.00  0.00    +0.144 HD
ATOM     11  H   UNL     1     -33.243  -7.966  18.275  0.00  0.00    +0.144 HD
ENDROOT
BRANCH   5  12
ATOM     12  N   UNL     1     -30.739  -8.849  18.733  0.00  0.00    +0.061 N 
ATOM     13  O   UNL     1     -31.609  -7.937  19.284  0.00  0.00    -0.126 OA
ATOM     14  O   UNL     1     -29.704  -9.150  19.363  0.00  0.00    -0.126 OA
ENDBRANCH   5  12
BRANCH   1  15
ATOM     15  C   UNL     1     -31.286 -12.874  13.605  0.00  0.00    +0.073 C 
BRANCH  15  17
ATOM     16  C   UNL     1     -29.865 -14.787  14.540  0.00  0.00    +0.006 C 
ATOM     17  C   UNL     1     -31.177 -14.012  14.657  0.00  0.00    +0.019 C 
ENDBRANCH  15  17
BRANCH  15  18
ATOM     18  C   UNL     1     -31.870 -13.372  12.262  0.00  0.00    +0.019 C 
ATOM     19  C   UNL     1     -33.363 -13.084  12.113  0.00  0.00    +0.006 C 
ENDBRANCH  15  18
ENDBRANCH   1  15
TORSDOF 4
ENDMDL
MODEL 7
REMARK VINA RESULT:    -3.354      2.317      3.259
REMARK INTER + INTRA:          -4.753
REMARK INTER:                  -4.141
REMARK INTRA:                  -0.612
REMARK UNBOUND:                -0.615
REMARK  Name = 
REMARK  6 active torsions:
REMARK  status: ('A' for Active; 'I' for Inactive)
REMARK    1  A    between atoms: C_1  and  C_2
REMARK    2  A    between atoms: C_2  and  C_3
REMARK    3  A    between atoms: C_3  and  C_4
REMARK    4  A    between atoms: C_3  and  N_6
REMARK    5  A    between atoms: C_4  and  C_5
REMARK    6  A    between atoms: C_10  and  N_14
REMARK                            x       y       z     vdW  Elec       q    Type
REMARK                         _______ _______ _______ _____ _____    ______ ____
ROOT
ATOM      1  N   UNL     1     -32.435 -10.640  17.526  0.00  0.00    -0.311 N 
ATOM      2  C   UNL     1     -31.098 -11.062  17.824  0.00  0.00    +0.217 A 
ATOM      3  N   UNL     1     -30.069 -10.174  17.802  0.00  0.00    -0.221 NA
ATOM      4  C   UNL     1     -28.800 -10.563  18.083  0.00  0.00    +0.150 A 
ATOM      5  C   UNL     1     -28.526 -11.896  18.417  0.00  0.00    +0.184 A 
ATOM      6  C   UNL     1     -29.602 -12.810  18.409  0.00  0.00    +0.152 A 
ATOM      7  N   UNL     1     -29.409 -14.209  18.639  0.00  0.00    -0.341 N 
ATOM      8  N   UNL     1     -30.855 -12.364  18.121  0.00  0.00    -0.198 NA
ATOM      9  H   UNL     1     -33.196 -11.354  17.577  0.00  0.00    +0.149 HD
ATOM     10  H   UNL     1     -30.237 -14.842  18.702  0.00  0.00    +0.144 HD
ATOM     11  H   UNL     1     -28.464 -14.649  18.627  0.00  0.00    +0.144 HD
ENDROOT
BRANCH   5  12
ATOM     12  N   UNL     1     -27.190 -12.280  18.778  0.00  0.00    +0.061 N 
ATOM     13  O   UNL     1     -26.161 -11.374  18.659  0.00  0.00    -0.126 OA
ATOM     14  O   UNL     1     -26.984 -13.345  19.397  0.00  0.00    -0.126 OA
ENDBRANCH   5  12
BRANCH   1  15
ATOM     15  C   UNL     1     -32.765  -9.248  17.192  0.00  0.00    +0.073 C 
BRANCH  15  17
ATOM     16  C   UNL     1     -33.342 -10.296  14.929  0.00  0.00    +0.006 C 
ATOM     17  C   UNL     1     -33.698  -9.216  15.950  0.00  0.00    +0.019 C 
ENDBRANCH  15  17
BRANCH  15  18
ATOM     18  C   UNL     1     -33.404  -8.563  18.422  0.00  0.00    +0.019 C 
ATOM     19  C   UNL     1     -32.403  -7.757  19.249  0.00  0.00    +0.006 C 
ENDBRANCH  15  18
ENDBRANCH   1  15
TORSDOF 4
ENDMDL
MODEL 8
REMARK VINA RESULT:    -3.324      4.067      4.712
REMARK INTER + INTRA:          -4.716
REMARK INTER:                  -4.061
REMARK INTRA:                  -0.656
REMARK UNBOUND:                -0.615
REMARK  Name = 
REMARK  6 active torsions:
REMARK  status: ('A' for Active; 'I' for Inactive)
REMARK    1  A    between atoms: C_1  and  C_2
REMARK    2  A    between atoms: C_2  and  C_3
REMARK    3  A    between atoms: C_3  and  C_4
REMARK    4  A    between atoms: C_3  and  N_6
REMARK    5  A    between atoms: C_4  and  C_5
REMARK    6  A    between atoms: C_10  and  N_14
REMARK                            x       y       z     vdW  Elec       q    Type
REMARK                         _______ _______ _______ _____ _____    ______ ____
ROOT
ATOM      1  N   UNL     1     -32.464 -11.233  20.148  0.00  0.00    -0.311 N 
ATOM      2  C   UNL     1     -31.087 -11.421  19.799  0.00  0.00    +0.217 A 
ATOM      3  N   UNL     1     -30.362 -10.405  19.263  0.00  0.00    -0.221 NA
ATOM      4  C   UNL     1     -29.058 -10.572  18.930  0.00  0.00    +0.150 A 
ATOM      5  C   UNL     1     -28.425 -11.803  19.145  0.00  0.00    +0.184 A 
ATOM      6  C   UNL     1     -29.200 -12.857  19.677  0.00  0.00    +0.152 A 
ATOM      7  N   UNL     1     -28.673 -14.177  19.840  0.00  0.00    -0.341 N 
ATOM      8  N   UNL     1     -30.503 -12.632  19.995  0.00  0.00    -0.198 NA
ATOM      9  H   UNL     1     -32.975 -12.039  20.577  0.00  0.00    +0.149 HD
ATOM     10  H   UNL     1     -29.250 -14.910  20.308  0.00  0.00    +0.144 HD
ATOM     11  H   UNL     1     -27.775 -14.475  19.402  0.00  0.00    +0.144 HD
ENDROOT
BRANCH   5  12
ATOM     12  N   UNL     1     -27.026 -11.946  18.850  0.00  0.00    +0.061 N 
ATOM     13  O   UNL     1     -26.363 -10.949  18.172  0.00  0.00    -0.126 OA
ATOM     14  O   UNL     1     -26.359 -12.858  19.383  0.00  0.00    -0.126 OA
ENDBRANCH   5  12
BRANCH   1  15
ATOM     15  C   UNL     1     -33.157  -9.952  19.957  0.00  0.00    +0.073 C 
BRANCH  15  17
ATOM     16  C   UNL     1     -34.046  -8.661  17.933  0.00  0.00    +0.006 C 
ATOM     17  C   UNL     1     -34.007 -10.006  18.658  0.00  0.00    +0.019 C 
ENDBRANCH  15  17
BRANCH  15  18
ATOM     18  C   UNL     1     -34.016  -9.643  21.205  0.00  0.00    +0.019 C 
ATOM     19  C   UNL     1     -34.306 -10.879  22.056  0.00  0.00    +0.006 C 
ENDBRANCH  15  18
ENDBRANCH   1  15
TORSDOF 4
ENDMDL
MODEL 9
REMARK VINA RESULT:    -3.298      3.052      3.866
REMARK INTER + INTRA:          -4.684
REMARK INTER:                  -4.054
REMARK INTRA:                  -0.629
REMARK UNBOUND:                -0.615
REMARK  Name = 
REMARK  6 active torsions:
REMARK  status: ('A' for Active; 'I' for Inactive)
REMARK    1  A    between atoms: C_1  and  C_2
REMARK    2  A    between atoms: C_2  and  C_3
REMARK    3  A    between atoms: C_3  and  C_4
REMARK    4  A    between atoms: C_3  and  N_6
REMARK    5  A    between atoms: C_4  and  C_5
REMARK    6  A    between atoms: C_10  and  N_14
REMARK                            x       y       z     vdW  Elec       q    Type
REMARK                         _______ _______ _______ _____ _____    ______ ____
ROOT
ATOM      1  N   UNL     1     -31.692 -11.918  13.915  0.00  0.00    -0.311 N 
ATOM      2  C   UNL     1     -32.108 -11.599  15.249  0.00  0.00    +0.217 A 
ATOM      3  N   UNL     1     -32.637 -12.555  16.057  0.00  0.00    -0.221 NA
ATOM      4  C   UNL     1     -33.034 -12.264  17.321  0.00  0.00    +0.150 A 
ATOM      5  C   UNL     1     -32.892 -10.965  17.826  0.00  0.00    +0.184 A 
ATOM      6  C   UNL     1     -32.366  -9.978  16.964  0.00  0.00    +0.152 A 
ATOM      7  N   UNL     1     -32.275  -8.604  17.352  0.00  0.00    -0.341 N 
ATOM      8  N   UNL     1     -31.983 -10.327  15.706  0.00  0.00    -0.198 NA
ATOM      9  H   UNL     1     -31.271 -11.154  13.338  0.00  0.00    +0.149 HD
ATOM     10  H   UNL     1     -31.809  -7.917  16.719  0.00  0.00    +0.144 HD
ATOM     11  H   UNL     1     -32.763  -8.231  18.194  0.00  0.00    +0.144 HD
ENDROOT
BRANCH   5  12
ATOM     12  N   UNL     1     -33.254 -10.687  19.189  0.00  0.00    +0.061 N 
ATOM     13  O   UNL     1     -33.958  -9.544  19.491  0.00  0.00    -0.126 OA
ATOM     14  O   UNL     1     -33.128 -11.566  20.067  0.00  0.00    -0.126 OA
ENDBRANCH   5  12
BRANCH   1  15
ATOM     15  C   UNL     1     -31.805 -13.272  13.357  0.00  0.00    +0.073 C 
BRANCH  15  17
ATOM     16  C   UNL     1     -33.824 -12.555  11.957  0.00  0.00    +0.006 C 
ATOM     17  C   UNL     1     -32.440 -13.202  11.941  0.00  0.00    +0.019 C 
ENDBRANCH  15  17
BRANCH  15  18
ATOM     18  C   UNL     1     -30.409 -13.937  13.340  0.00  0.00    +0.019 C 
ATOM     19  C   UNL     1     -30.120 -14.759  14.595  0.00  0.00    +0.006 C 
ENDBRANCH  15  18
ENDBRANCH   1  15
TORSDOF 4
ENDMDL
