MODEL 1
REMARK VINA RESULT:    -4.346      0.000      0.000
REMARK INTER + INTRA:          -5.659
REMARK INTER:                  -5.362
REMARK INTRA:                  -0.297
REMARK UNBOUND:                -0.297
REMARK  Name = 
REMARK  4 active torsions:
REMARK  status: ('A' for Active; 'I' for Inactive)
REMARK    1  A    between atoms: C_2  and  C_3
REMARK    2  A    between atoms: N_13  and  C_14
REMARK    3  A    between atoms: C_14  and  C_15
REMARK    4  A    between atoms: C_19  and  N_21
REMARK                            x       y       z     vdW  Elec       q    Type
REMARK                         _______ _______ _______ _____ _____    ______ ____
ROOT
ATOM      1  C   UNL     1     -30.104 -14.050  13.886  0.00  0.00    +0.052 A 
ATOM      2  C   UNL     1     -29.976 -14.562  15.184  0.00  0.00    +0.021 A 
ATOM      3  C   UNL     1     -30.727 -14.021  16.232  0.00  0.00    +0.029 A 
ATOM      4  C   UNL     1     -31.610 -12.965  15.989  0.00  0.00    +0.073 A 
ATOM      5  N   UNL     1     -32.340 -12.436  17.006  0.00  0.00    -0.232 NA
ATOM      6  C   UNL     1     -33.211 -11.405  16.819  0.00  0.00    +0.120 A 
ATOM      7  C   UNL     1     -33.373 -10.869  15.529  0.00  0.00    +0.044 A 
ATOM      8  C   UNL     1     -32.635 -11.390  14.464  0.00  0.00    +0.013 A 
ATOM      9  C   UNL     1     -31.743 -12.446  14.683  0.00  0.00    +0.002 A 
ATOM     10  C   UNL     1     -30.988 -12.992  13.635  0.00  0.00    +0.029 A 
ATOM     11  N   UNL     1     -33.942 -10.903  17.951  0.00  0.00    -0.325 N 
ATOM     12  H   UNL     1     -33.842 -11.409  18.860  0.00  0.00    +0.148 HD
ENDROOT
BRANCH   1  14
ATOM     13  N   UNL     1     -28.705 -15.062  11.948  0.00  0.00    -0.191 NA
ATOM     14  C   UNL     1     -29.328 -14.612  12.811  0.00  0.00    +0.099 C 
ENDBRANCH   1  14
BRANCH  11  15
ATOM     15  C   UNL     1     -34.772  -9.697  17.937  0.00  0.00    +0.138 C 
BRANCH  15  16
ATOM     16  C   UNL     1     -34.046  -8.544  18.579  0.00  0.00    -0.028 A 
ATOM     17  C   UNL     1     -34.704  -7.324  18.802  0.00  0.00    +0.005 A 
ATOM     18  C   UNL     1     -34.028  -6.260  19.401  0.00  0.00    +0.003 A 
ATOM     19  C   UNL     1     -32.695  -6.404  19.791  0.00  0.00    +0.033 A 
ATOM     20  C   UNL     1     -32.021  -7.620  19.590  0.00  0.00    +0.127 A 
ATOM     21  C   UNL     1     -32.709  -8.690  18.984  0.00  0.00    +0.038 A 
BRANCH  20  22
ATOM     22  N   UNL     1     -30.648  -7.768  19.997  0.00  0.00    +0.056 N 
ATOM     23  O   UNL     1     -29.930  -8.887  19.643  0.00  0.00    -0.126 OA
ATOM     24  O   UNL     1     -30.086  -6.885  20.679  0.00  0.00    -0.126 OA
ENDBRANCH  20  22
ENDBRANCH  15  16
ENDBRANCH  11  15
TORSDOF 4
ENDMDL
MODEL 2
REMARK VINA RESULT:    -4.266      3.750      5.026
REMARK INTER + INTRA:          -5.560
REMARK INTER:                  -5.172
REMARK INTRA:                  -0.388
REMARK UNBOUND:                -0.297
REMARK  Name = 
REMARK  4 active torsions:
REMARK  status: ('A' for Active; 'I' for Inactive)
REMARK    1  A    between atoms: C_2  and  C_3
REMARK    2  A    between atoms: N_13  and  C_14
REMARK    3  A    between atoms: C_14  and  C_15
REMARK    4  A    between atoms: C_19  and  N_21
REMARK                            x       y       z     vdW  Elec       q    Type
REMARK                         _______ _______ _______ _____ _____    ______ ____
ROOT
ATOM      1  C   UNL     1     -27.414 -13.373  20.246  0.00  0.00    +0.052 A 
ATOM      2  C   UNL     1     -28.425 -13.365  21.217  0.00  0.00    +0.021 A 
ATOM      3  C   UNL     1     -29.760 -13.188  20.842  0.00  0.00    +0.029 A 
ATOM      4  C   UNL     1     -30.093 -13.017  19.494  0.00  0.00    +0.073 A 
ATOM      5  N   UNL     1     -31.390 -12.843  19.127  0.00  0.00    -0.232 NA
ATOM      6  C   UNL     1     -31.762 -12.670  17.828  0.00  0.00    +0.120 A 
ATOM      7  C   UNL     1     -30.778 -12.680  16.824  0.00  0.00    +0.044 A 
ATOM      8  C   UNL     1     -29.436 -12.855  17.170  0.00  0.00    +0.013 A 
ATOM      9  C   UNL     1     -29.078 -13.026  18.513  0.00  0.00    +0.002 A 
ATOM     10  C   UNL     1     -27.740 -13.204  18.894  0.00  0.00    +0.029 A 
ATOM     11  N   UNL     1     -33.157 -12.489  17.528  0.00  0.00    -0.325 N 
ATOM     12  H   UNL     1     -33.842 -12.586  18.311  0.00  0.00    +0.148 HD
ENDROOT
BRANCH   1  14
ATOM     13  N   UNL     1     -24.938 -13.704  20.953  0.00  0.00    -0.191 NA
ATOM     14  C   UNL     1     -26.041 -13.557  20.638  0.00  0.00    +0.099 C 
ENDBRANCH   1  14
BRANCH  11  15
ATOM     15  C   UNL     1     -33.684 -12.120  16.212  0.00  0.00    +0.138 C 
BRANCH  15  16
ATOM     16  C   UNL     1     -34.052 -10.660  16.176  0.00  0.00    -0.028 A 
ATOM     17  C   UNL     1     -34.306 -10.020  14.953  0.00  0.00    +0.005 A 
ATOM     18  C   UNL     1     -34.651  -8.668  14.926  0.00  0.00    +0.003 A 
ATOM     19  C   UNL     1     -34.756  -7.945  16.116  0.00  0.00    +0.033 A 
ATOM     20  C   UNL     1     -34.519  -8.569  17.353  0.00  0.00    +0.127 A 
ATOM     21  C   UNL     1     -34.171  -9.933  17.372  0.00  0.00    +0.038 A 
BRANCH  20  22
ATOM     22  N   UNL     1     -34.632  -7.823  18.578  0.00  0.00    +0.056 N 
ATOM     23  O   UNL     1     -35.062  -6.516  18.564  0.00  0.00    -0.126 OA
ATOM     24  O   UNL     1     -34.340  -8.346  19.674  0.00  0.00    -0.126 OA
ENDBRANCH  20  22
ENDBRANCH  15  16
ENDBRANCH  11  15
TORSDOF 4
ENDMDL
MODEL 3
REMARK VINA RESULT:    -4.094      1.868      2.588
REMARK INTER + INTRA:          -5.349
REMARK INTER:                  -4.964
REMARK INTRA:                  -0.385
REMARK UNBOUND:                -0.297
REMARK  Name = 
REMARK  4 active torsions:
REMARK  status: ('A' for Active; 'I' for Inactive)
REMARK    1  A    between atoms: C_2  and  C_3
REMARK    2  A    between atoms: N_13  and  C_14
REMARK    3  A    between atoms: C_14  and  C_15
REMARK    4  A    between atoms: C_19  and  N_21
REMARK                            x       y       z     vdW  Elec       q    Type
REMARK                         _______ _______ _______ _____ _____    ______ ____
ROOT
ATOM      1  C   UNL     1     -29.521 -14.156  13.700  0.00  0.00    +0.052 A 
ATOM      2  C   UNL     1     -30.814 -13.788  13.306  0.00  0.00    +0.021 A 
ATOM      3  C   UNL     1     -31.725 -13.299  14.248  0.00  0.00    +0.029 A 
ATOM      4  C   UNL     1     -31.347 -13.174  15.588  0.00  0.00    +0.073 A 
ATOM      5  N   UNL     1     -32.231 -12.700  16.506  0.00  0.00    -0.232 NA
ATOM      6  C   UNL     1     -31.911 -12.563  17.823  0.00  0.00    +0.120 A 
ATOM      7  C   UNL     1     -30.620 -12.914  18.256  0.00  0.00    +0.044 A 
ATOM      8  C   UNL     1     -29.690 -13.406  17.337  0.00  0.00    +0.013 A 
ATOM      9  C   UNL     1     -30.045 -13.542  15.990  0.00  0.00    +0.002 A 
ATOM     10  C   UNL     1     -29.135 -14.032  15.042  0.00  0.00    +0.029 A 
ATOM     11  N   UNL     1     -32.908 -12.056  18.728  0.00  0.00    -0.325 N 
ATOM     12  H   UNL     1     -33.813 -11.728  18.323  0.00  0.00    +0.148 HD
ENDROOT
BRANCH   1  14
ATOM     13  N   UNL     1     -27.838 -15.062  11.944  0.00  0.00    -0.191 NA
ATOM     14  C   UNL     1     -28.587 -14.659  12.726  0.00  0.00    +0.099 C 
ENDBRANCH   1  14
BRANCH  11  15
ATOM     15  C   UNL     1     -32.768 -12.021  20.185  0.00  0.00    +0.138 C 
BRANCH  15  16
ATOM     16  C   UNL     1     -32.976 -10.623  20.706  0.00  0.00    -0.028 A 
ATOM     17  C   UNL     1     -34.054 -10.333  21.556  0.00  0.00    +0.005 A 
ATOM     18  C   UNL     1     -34.239  -9.037  22.040  0.00  0.00    +0.003 A 
ATOM     19  C   UNL     1     -33.347  -8.021  21.689  0.00  0.00    +0.033 A 
ATOM     20  C   UNL     1     -32.253  -8.292  20.850  0.00  0.00    +0.127 A 
ATOM     21  C   UNL     1     -32.073  -9.602  20.365  0.00  0.00    +0.038 A 
BRANCH  20  22
ATOM     22  N   UNL     1     -31.333  -7.244  20.493  0.00  0.00    +0.056 N 
ATOM     23  O   UNL     1     -31.784  -5.965  20.265  0.00  0.00    -0.126 OA
ATOM     24  O   UNL     1     -30.111  -7.478  20.382  0.00  0.00    -0.126 OA
ENDBRANCH  20  22
ENDBRANCH  15  16
ENDBRANCH  11  15
TORSDOF 4
ENDMDL
MODEL 4
REMARK VINA RESULT:    -4.000      4.554      6.728
REMARK INTER + INTRA:          -5.233
REMARK INTER:                  -5.117
REMARK INTRA:                  -0.115
REMARK UNBOUND:                -0.297
REMARK  Name = 
REMARK  4 active torsions:
REMARK  status: ('A' for Active; 'I' for Inactive)
REMARK    1  A    between atoms: C_2  and  C_3
REMARK    2  A    between atoms: N_13  and  C_14
REMARK    3  A    between atoms: C_14  and  C_15
REMARK    4  A    between atoms: C_19  and  N_21
REMARK                            x       y       z     vdW  Elec       q    Type
REMARK                         _______ _______ _______ _____ _____    ______ ____
ROOT
ATOM      1  C   UNL     1     -27.035 -13.237  20.277  0.00  0.00    +0.052 A 
ATOM      2  C   UNL     1     -26.300 -12.440  19.390  0.00  0.00    +0.021 A 
ATOM      3  C   UNL     1     -26.959 -11.617  18.471  0.00  0.00    +0.029 A 
ATOM      4  C   UNL     1     -28.356 -11.586  18.435  0.00  0.00    +0.073 A 
ATOM      5  N   UNL     1     -29.000 -10.788  17.542  0.00  0.00    -0.232 NA
ATOM      6  C   UNL     1     -30.358 -10.726  17.467  0.00  0.00    +0.120 A 
ATOM      7  C   UNL     1     -31.131 -11.506  18.346  0.00  0.00    +0.044 A 
ATOM      8  C   UNL     1     -30.499 -12.337  19.273  0.00  0.00    +0.013 A 
ATOM      9  C   UNL     1     -29.101 -12.387  19.327  0.00  0.00    +0.002 A 
ATOM     10  C   UNL     1     -28.435 -13.211  20.247  0.00  0.00    +0.029 A 
ATOM     11  N   UNL     1     -30.958  -9.857  16.490  0.00  0.00    -0.325 N 
ATOM     12  H   UNL     1     -30.326  -9.238  15.934  0.00  0.00    +0.148 HD
ENDROOT
BRANCH   1  14
ATOM     13  N   UNL     1     -25.801 -14.762  21.978  0.00  0.00    -0.191 NA
ATOM     14  C   UNL     1     -26.351 -14.083  21.221  0.00  0.00    +0.099 C 
ENDBRANCH   1  14
BRANCH  11  15
ATOM     15  C   UNL     1     -32.387  -9.819  16.177  0.00  0.00    +0.138 C 
BRANCH  15  16
ATOM     16  C   UNL     1     -32.712 -10.770  15.055  0.00  0.00    -0.028 A 
ATOM     17  C   UNL     1     -33.977 -10.748  14.446  0.00  0.00    +0.005 A 
ATOM     18  C   UNL     1     -34.270 -11.629  13.404  0.00  0.00    +0.003 A 
ATOM     19  C   UNL     1     -33.306 -12.533  12.954  0.00  0.00    +0.033 A 
ATOM     20  C   UNL     1     -32.030 -12.564  13.540  0.00  0.00    +0.127 A 
ATOM     21  C   UNL     1     -31.740 -11.672  14.592  0.00  0.00    +0.038 A 
BRANCH  20  22
ATOM     22  N   UNL     1     -31.036 -13.494  13.072  0.00  0.00    +0.056 N 
ATOM     23  O   UNL     1     -29.964 -13.830  13.866  0.00  0.00    -0.126 OA
ATOM     24  O   UNL     1     -31.128 -14.009  11.938  0.00  0.00    -0.126 OA
ENDBRANCH  20  22
ENDBRANCH  15  16
ENDBRANCH  11  15
TORSDOF 4
ENDMDL
MODEL 5
REMARK VINA RESULT:    -3.918      4.487      5.861
REMARK INTER + INTRA:          -5.131
REMARK INTER:                  -4.863
REMARK INTRA:                  -0.268
REMARK UNBOUND:                -0.297
REMARK  Name = 
REMARK  4 active torsions:
REMARK  status: ('A' for Active; 'I' for Inactive)
REMARK    1  A    between atoms: C_2  and  C_3
REMARK    2  A    between atoms: N_13  and  C_14
REMARK    3  A    between atoms: C_14  and  C_15
REMARK    4  A    between atoms: C_19  and  N_21
REMARK                            x       y       z     vdW  Elec       q    Type
REMARK                         _______ _______ _______ _____ _____    ______ ____
ROOT
ATOM      1  C   UNL     1     -26.915 -13.319  20.197  0.00  0.00    +0.052 A 
ATOM      2  C   UNL     1     -26.472 -12.419  19.217  0.00  0.00    +0.021 A 
ATOM      3  C   UNL     1     -27.394 -11.761  18.398  0.00  0.00    +0.029 A 
ATOM      4  C   UNL     1     -28.763 -11.998  18.551  0.00  0.00    +0.073 A 
ATOM      5  N   UNL     1     -29.662 -11.360  17.754  0.00  0.00    -0.232 NA
ATOM      6  C   UNL     1     -31.004 -11.561  17.864  0.00  0.00    +0.120 A 
ATOM      7  C   UNL     1     -31.488 -12.450  18.840  0.00  0.00    +0.044 A 
ATOM      8  C   UNL     1     -30.590 -13.121  19.673  0.00  0.00    +0.013 A 
ATOM      9  C   UNL     1     -29.215 -12.902  19.537  0.00  0.00    +0.002 A 
ATOM     10  C   UNL     1     -28.286 -13.560  20.357  0.00  0.00    +0.029 A 
ATOM     11  N   UNL     1     -31.884 -10.847  16.978  0.00  0.00    -0.325 N 
ATOM     12  H   UNL     1     -31.463 -10.134  16.342  0.00  0.00    +0.148 HD
ENDROOT
BRANCH   1  14
ATOM     13  N   UNL     1     -25.196 -14.535  21.714  0.00  0.00    -0.191 NA
ATOM     14  C   UNL     1     -25.962 -13.993  21.038  0.00  0.00    +0.099 C 
ENDBRANCH   1  14
BRANCH  11  15
ATOM     15  C   UNL     1     -33.323 -11.090  16.862  0.00  0.00    +0.138 C 
BRANCH  15  16
ATOM     16  C   UNL     1     -33.925 -10.222  15.788  0.00  0.00    -0.028 A 
ATOM     17  C   UNL     1     -34.331 -10.779  14.566  0.00  0.00    +0.005 A 
ATOM     18  C   UNL     1     -34.892  -9.970  13.576  0.00  0.00    +0.003 A 
ATOM     19  C   UNL     1     -35.062  -8.602  13.799  0.00  0.00    +0.033 A 
ATOM     20  C   UNL     1     -34.675  -8.025  15.020  0.00  0.00    +0.127 A 
ATOM     21  C   UNL     1     -34.109  -8.848  16.014  0.00  0.00    +0.038 A 
BRANCH  20  22
ATOM     22  N   UNL     1     -34.856  -6.616  15.249  0.00  0.00    +0.056 N 
ATOM     23  O   UNL     1     -34.978  -5.746  14.190  0.00  0.00    -0.126 OA
ATOM     24  O   UNL     1     -34.902  -6.158  16.410  0.00  0.00    -0.126 OA
ENDBRANCH  20  22
ENDBRANCH  15  16
ENDBRANCH  11  15
TORSDOF 4
ENDMDL
MODEL 6
REMARK VINA RESULT:    -3.881      3.318      8.272
REMARK INTER + INTRA:          -5.086
REMARK INTER:                  -4.664
REMARK INTRA:                  -0.422
REMARK UNBOUND:                -0.297
REMARK  Name = 
REMARK  4 active torsions:
REMARK  status: ('A' for Active; 'I' for Inactive)
REMARK    1  A    between atoms: C_2  and  C_3
REMARK    2  A    between atoms: N_13  and  C_14
REMARK    3  A    between atoms: C_14  and  C_15
REMARK    4  A    between atoms: C_19  and  N_21
REMARK                            x       y       z     vdW  Elec       q    Type
REMARK                         _______ _______ _______ _____ _____    ______ ____
ROOT
ATOM      1  C   UNL     1     -31.570  -7.395  20.209  0.00  0.00    +0.052 A 
ATOM      2  C   UNL     1     -32.798  -7.595  19.565  0.00  0.00    +0.021 A 
ATOM      3  C   UNL     1     -33.057  -8.798  18.900  0.00  0.00    +0.029 A 
ATOM      4  C   UNL     1     -32.090  -9.807  18.875  0.00  0.00    +0.073 A 
ATOM      5  N   UNL     1     -32.338 -10.977  18.228  0.00  0.00    -0.232 NA
ATOM      6  C   UNL     1     -31.426 -11.987  18.174  0.00  0.00    +0.120 A 
ATOM      7  C   UNL     1     -30.185 -11.827  18.814  0.00  0.00    +0.044 A 
ATOM      8  C   UNL     1     -29.899 -10.637  19.486  0.00  0.00    +0.013 A 
ATOM      9  C   UNL     1     -30.851  -9.611  19.523  0.00  0.00    +0.002 A 
ATOM     10  C   UNL     1     -30.596  -8.403  20.189  0.00  0.00    +0.029 A 
ATOM     11  N   UNL     1     -31.769 -13.191  17.464  0.00  0.00    -0.325 N 
ATOM     12  H   UNL     1     -32.742 -13.277  17.093  0.00  0.00    +0.148 HD
ENDROOT
BRANCH   1  14
ATOM     13  N   UNL     1     -31.100  -5.159  21.441  0.00  0.00    -0.191 NA
ATOM     14  C   UNL     1     -31.309  -6.155  20.892  0.00  0.00    +0.099 C 
ENDBRANCH   1  14
BRANCH  11  15
ATOM     15  C   UNL     1     -30.836 -14.280  17.174  0.00  0.00    +0.138 C 
BRANCH  15  16
ATOM     16  C   UNL     1     -30.456 -14.282  15.717  0.00  0.00    -0.028 A 
ATOM     17  C   UNL     1     -29.229 -14.824  15.301  0.00  0.00    +0.005 A 
ATOM     18  C   UNL     1     -28.885 -14.827  13.949  0.00  0.00    +0.003 A 
ATOM     19  C   UNL     1     -29.761 -14.301  12.998  0.00  0.00    +0.033 A 
ATOM     20  C   UNL     1     -31.000 -13.765  13.390  0.00  0.00    +0.127 A 
ATOM     21  C   UNL     1     -31.341 -13.765  14.757  0.00  0.00    +0.038 A 
BRANCH  20  22
ATOM     22  N   UNL     1     -31.904 -13.227  12.408  0.00  0.00    +0.056 N 
ATOM     23  O   UNL     1     -32.978 -13.965  11.967  0.00  0.00    -0.126 OA
ATOM     24  O   UNL     1     -31.728 -12.083  11.938  0.00  0.00    -0.126 OA
ENDBRANCH  20  22
ENDBRANCH  15  16
ENDBRANCH  11  15
TORSDOF 4
ENDMDL
MODEL 7
REMARK VINA RESULT:    -3.816      1.154      1.731
REMARK INTER + INTRA:          -5.006
REMARK INTER:                  -4.563
REMARK INTRA:                  -0.443
REMARK UNBOUND:                -0.297
REMARK  Name = 
REMARK  4 active torsions:
REMARK  status: ('A' for Active; 'I' for Inactive)
REMARK    1  A    between atoms: C_2  and  C_3
REMARK    2  A    between atoms: N_13  and  C_14
REMARK    3  A    between atoms: C_14  and  C_15
REMARK    4  A    between atoms: C_19  and  N_21
REMARK                            x       y       z     vdW  Elec       q    Type
REMARK                         _______ _______ _______ _____ _____    ______ ____
ROOT
ATOM      1  C   UNL     1     -30.773 -13.561  13.303  0.00  0.00    +0.052 A 
ATOM      2  C   UNL     1     -31.908 -13.015  12.689  0.00  0.00    +0.021 A 
ATOM      3  C   UNL     1     -32.783 -12.205  13.420  0.00  0.00    +0.029 A 
ATOM      4  C   UNL     1     -32.529 -11.936  14.768  0.00  0.00    +0.073 A 
ATOM      5  N   UNL     1     -33.379 -11.151  15.481  0.00  0.00    -0.232 NA
ATOM      6  C   UNL     1     -33.175 -10.864  16.797  0.00  0.00    +0.120 A 
ATOM      7  C   UNL     1     -32.043 -11.387  17.447  0.00  0.00    +0.044 A 
ATOM      8  C   UNL     1     -31.152 -12.199  16.742  0.00  0.00    +0.013 A 
ATOM      9  C   UNL     1     -31.386 -12.483  15.392  0.00  0.00    +0.002 A 
ATOM     10  C   UNL     1     -30.511 -13.295  14.654  0.00  0.00    +0.029 A 
ATOM     11  N   UNL     1     -34.126 -10.027  17.477  0.00  0.00    -0.325 N 
ATOM     12  H   UNL     1     -34.892  -9.597  16.910  0.00  0.00    +0.148 HD
ENDROOT
BRANCH   1  14
ATOM     13  N   UNL     1     -29.154 -15.062  11.938  0.00  0.00    -0.191 NA
ATOM     14  C   UNL     1     -29.875 -14.394  12.546  0.00  0.00    +0.099 C 
ENDBRANCH   1  14
BRANCH  11  15
ATOM     15  C   UNL     1     -34.134  -9.778  18.920  0.00  0.00    +0.138 C 
BRANCH  15  16
ATOM     16  C   UNL     1     -33.549  -8.425  19.230  0.00  0.00    -0.028 A 
ATOM     17  C   UNL     1     -34.221  -7.254  18.847  0.00  0.00    +0.005 A 
ATOM     18  C   UNL     1     -33.677  -6.003  19.142  0.00  0.00    +0.003 A 
ATOM     19  C   UNL     1     -32.465  -5.907  19.828  0.00  0.00    +0.033 A 
ATOM     20  C   UNL     1     -31.782  -7.066  20.233  0.00  0.00    +0.127 A 
ATOM     21  C   UNL     1     -32.337  -8.325  19.932  0.00  0.00    +0.038 A 
BRANCH  20  22
ATOM     22  N   UNL     1     -30.535  -6.964  20.945  0.00  0.00    +0.056 N 
ATOM     23  O   UNL     1     -30.259  -7.807  21.997  0.00  0.00    -0.126 OA
ATOM     24  O   UNL     1     -29.683  -6.109  20.622  0.00  0.00    -0.126 OA
ENDBRANCH  20  22
ENDBRANCH  15  16
ENDBRANCH  11  15
TORSDOF 4
ENDMDL
MODEL 8
REMARK VINA RESULT:    -3.697      2.018      2.521
REMARK INTER + INTRA:          -4.859
REMARK INTER:                  -4.379
REMARK INTRA:                  -0.480
REMARK UNBOUND:                -0.297
REMARK  Name = 
REMARK  4 active torsions:
REMARK  status: ('A' for Active; 'I' for Inactive)
REMARK    1  A    between atoms: C_2  and  C_3
REMARK    2  A    between atoms: N_13  and  C_14
REMARK    3  A    between atoms: C_14  and  C_15
REMARK    4  A    between atoms: C_19  and  N_21
REMARK                            x       y       z     vdW  Elec       q    Type
REMARK                         _______ _______ _______ _____ _____    ______ ____
ROOT
ATOM      1  C   UNL     1     -30.242 -14.333  14.384  0.00  0.00    +0.052 A 
ATOM      2  C   UNL     1     -29.411 -14.776  15.422  0.00  0.00    +0.021 A 
ATOM      3  C   UNL     1     -29.665 -14.388  16.741  0.00  0.00    +0.029 A 
ATOM      4  C   UNL     1     -30.750 -13.555  17.031  0.00  0.00    +0.073 A 
ATOM      5  N   UNL     1     -30.997 -13.175  18.313  0.00  0.00    -0.232 NA
ATOM      6  C   UNL     1     -32.039 -12.363  18.643  0.00  0.00    +0.120 A 
ATOM      7  C   UNL     1     -32.900 -11.903  17.630  0.00  0.00    +0.044 A 
ATOM      8  C   UNL     1     -32.671 -12.274  16.304  0.00  0.00    +0.013 A 
ATOM      9  C   UNL     1     -31.590 -13.106  15.989  0.00  0.00    +0.002 A 
ATOM     10  C   UNL     1     -31.331 -13.498  14.667  0.00  0.00    +0.029 A 
ATOM     11  N   UNL     1     -32.227 -12.006  20.024  0.00  0.00    -0.325 N 
ATOM     12  H   UNL     1     -31.607 -12.459  20.733  0.00  0.00    +0.148 HD
ENDROOT
BRANCH   1  14
ATOM     13  N   UNL     1     -29.763 -15.059  11.938  0.00  0.00    -0.191 NA
ATOM     14  C   UNL     1     -29.976 -14.736  13.028  0.00  0.00    +0.099 C 
ENDBRANCH   1  14
BRANCH  11  15
ATOM     15  C   UNL     1     -33.188 -11.011  20.503  0.00  0.00    +0.138 C 
BRANCH  15  16
ATOM     16  C   UNL     1     -32.528  -9.666  20.658  0.00  0.00    -0.028 A 
ATOM     17  C   UNL     1     -31.440  -9.502  21.529  0.00  0.00    +0.005 A 
ATOM     18  C   UNL     1     -30.829  -8.254  21.665  0.00  0.00    +0.003 A 
ATOM     19  C   UNL     1     -31.290  -7.162  20.927  0.00  0.00    +0.033 A 
ATOM     20  C   UNL     1     -32.369  -7.306  20.038  0.00  0.00    +0.127 A 
ATOM     21  C   UNL     1     -32.981  -8.568  19.907  0.00  0.00    +0.038 A 
BRANCH  20  22
ATOM     22  N   UNL     1     -32.839  -6.180  19.275  0.00  0.00    +0.056 N 
ATOM     23  O   UNL     1     -34.052  -6.231  18.629  0.00  0.00    -0.126 OA
ATOM     24  O   UNL     1     -32.154  -5.139  19.184  0.00  0.00    -0.126 OA
ENDBRANCH  20  22
ENDBRANCH  15  16
ENDBRANCH  11  15
TORSDOF 4
ENDMDL
