MODEL 1
REMARK VINA RESULT:    -3.757      0.000      0.000
REMARK INTER + INTRA:          -5.209
REMARK INTER:                  -4.635
REMARK INTRA:                  -0.574
REMARK UNBOUND:                -0.574
REMARK  Name = 
REMARK  6 active torsions:
REMARK  status: ('A' for Active; 'I' for Inactive)
REMARK    1  A    between atoms: C_1  and  C_2
REMARK    2  A    between atoms: C_2  and  C_3
REMARK    3  A    between atoms: C_3  and  C_4
REMARK    4  A    between atoms: C_3  and  N_6
REMARK    5  A    between atoms: C_4  and  C_5
REMARK    6  A    between atoms: C_10  and  N_14
REMARK                            x       y       z     vdW  Elec       q    Type
REMARK                         _______ _______ _______ _____ _____    ______ ____
ROOT
ATOM      1  N   UNL     1     -31.281 -13.098  20.018  0.00  0.00    -0.311 N 
ATOM      2  C   UNL     1     -29.850 -13.140  20.071  0.00  0.00    +0.217 A 
ATOM      3  N   UNL     1     -29.102 -12.423  19.192  0.00  0.00    -0.221 NA
ATOM      4  C   UNL     1     -27.747 -12.455  19.233  0.00  0.00    +0.150 A 
ATOM      5  C   UNL     1     -27.086 -13.227  20.199  0.00  0.00    +0.184 A 
ATOM      6  C   UNL     1     -27.878 -13.988  21.086  0.00  0.00    +0.152 A 
ATOM      7  N   UNL     1     -27.299 -14.883  22.041  0.00  0.00    -0.341 N 
ATOM      8  N   UNL     1     -29.234 -13.915  21.000  0.00  0.00    -0.198 NA
ATOM      9  H   UNL     1     -31.814 -13.651  20.729  0.00  0.00    +0.149 HD
ATOM     10  H   UNL     1     -27.911 -15.370  22.731  0.00  0.00    +0.144 HD
ATOM     11  H   UNL     1     -26.296 -15.165  22.000  0.00  0.00    +0.144 HD
ENDROOT
BRANCH   5  12
ATOM     12  N   UNL     1     -25.652 -13.200  20.273  0.00  0.00    +0.061 N 
ATOM     13  O   UNL     1     -24.938 -12.370  19.440  0.00  0.00    -0.126 OA
ATOM     14  O   UNL     1     -25.059 -13.754  21.223  0.00  0.00    -0.126 OA
ENDBRANCH   5  12
BRANCH   1  15
ATOM     15  C   UNL     1     -32.010 -12.285  19.035  0.00  0.00    +0.073 C 
BRANCH  15  17
ATOM     16  C   UNL     1     -33.146 -12.373  16.743  0.00  0.00    +0.006 C 
ATOM     17  C   UNL     1     -32.404 -13.167  17.819  0.00  0.00    +0.019 C 
ENDBRANCH  15  17
BRANCH  15  18
ATOM     18  C   UNL     1     -33.241 -11.641  19.714  0.00  0.00    +0.019 C 
ATOM     19  C   UNL     1     -32.880 -10.797  20.936  0.00  0.00    +0.006 C 
ENDBRANCH  15  18
ENDBRANCH   1  15
TORSDOF 4
ENDMDL
MODEL 2
REMARK VINA RESULT:    -3.633      3.333      4.582
REMARK INTER + INTRA:          -5.057
REMARK INTER:                  -4.444
REMARK INTRA:                  -0.613
REMARK UNBOUND:                -0.574
REMARK  Name = 
REMARK  6 active torsions:
REMARK  status: ('A' for Active; 'I' for Inactive)
REMARK    1  A    between atoms: C_1  and  C_2
REMARK    2  A    between atoms: C_2  and  C_3
REMARK    3  A    between atoms: C_3  and  C_4
REMARK    4  A    between atoms: C_3  and  N_6
REMARK    5  A    between atoms: C_4  and  C_5
REMARK    6  A    between atoms: C_10  and  N_14
REMARK                            x       y       z     vdW  Elec       q    Type
REMARK                         _______ _______ _______ _____ _____    ______ ____
ROOT
ATOM      1  N   UNL     1     -31.724 -12.951  14.879  0.00  0.00    -0.311 N 
ATOM      2  C   UNL     1     -30.936 -12.504  15.989  0.00  0.00    +0.217 A 
ATOM      3  N   UNL     1     -30.676 -11.182  16.168  0.00  0.00    -0.221 NA
ATOM      4  C   UNL     1     -29.931 -10.749  17.216  0.00  0.00    +0.150 A 
ATOM      5  C   UNL     1     -29.422 -11.663  18.148  0.00  0.00    +0.184 A 
ATOM      6  C   UNL     1     -29.678 -13.034  17.932  0.00  0.00    +0.152 A 
ATOM      7  N   UNL     1     -29.119 -14.050  18.770  0.00  0.00    -0.341 N 
ATOM      8  N   UNL     1     -30.433 -13.412  16.865  0.00  0.00    -0.198 NA
ATOM      9  H   UNL     1     -31.914 -13.975  14.795  0.00  0.00    +0.149 HD
ATOM     10  H   UNL     1     -29.393 -15.047  18.627  0.00  0.00    +0.144 HD
ATOM     11  H   UNL     1     -28.351 -13.852  19.447  0.00  0.00    +0.144 HD
ENDROOT
BRANCH   5  12
ATOM     12  N   UNL     1     -28.692 -11.184  19.289  0.00  0.00    +0.061 N 
ATOM     13  O   UNL     1     -29.335 -10.442  20.253  0.00  0.00    -0.126 OA
ATOM     14  O   UNL     1     -27.542 -11.609  19.526  0.00  0.00    -0.126 OA
ENDBRANCH   5  12
BRANCH   1  15
ATOM     15  C   UNL     1     -32.293 -12.023  13.893  0.00  0.00    +0.073 C 
BRANCH  15  17
ATOM     16  C   UNL     1     -33.318 -13.319  11.938  0.00  0.00    +0.006 C 
ATOM     17  C   UNL     1     -32.082 -12.588  12.461  0.00  0.00    +0.019 C 
ENDBRANCH  15  17
BRANCH  15  18
ATOM     18  C   UNL     1     -33.787 -11.786  14.214  0.00  0.00    +0.019 C 
ATOM     19  C   UNL     1     -34.134 -10.310  14.402  0.00  0.00    +0.006 C 
ENDBRANCH  15  18
ENDBRANCH   1  15
TORSDOF 4
ENDMDL
MODEL 3
REMARK VINA RESULT:    -3.568      3.704      5.084
REMARK INTER + INTRA:          -4.976
REMARK INTER:                  -4.339
REMARK INTRA:                  -0.637
REMARK UNBOUND:                -0.574
REMARK  Name = 
REMARK  6 active torsions:
REMARK  status: ('A' for Active; 'I' for Inactive)
REMARK    1  A    between atoms: C_1  and  C_2
REMARK    2  A    between atoms: C_2  and  C_3
REMARK    3  A    between atoms: C_3  and  C_4
REMARK    4  A    between atoms: C_3  and  N_6
REMARK    5  A    between atoms: C_4  and  C_5
REMARK    6  A    between atoms: C_10  and  N_14
REMARK                            x       y       z     vdW  Elec       q    Type
REMARK                         _______ _______ _______ _____ _____    ______ ____
ROOT
ATOM      1  N   UNL     1     -31.095 -14.055  15.315  0.00  0.00    -0.311 N 
ATOM      2  C   UNL     1     -30.735 -13.345  16.507  0.00  0.00    +0.217 A 
ATOM      3  N   UNL     1     -30.169 -12.112  16.435  0.00  0.00    -0.221 NA
ATOM      4  C   UNL     1     -29.825 -11.431  17.556  0.00  0.00    +0.150 A 
ATOM      5  C   UNL     1     -30.059 -11.986  18.822  0.00  0.00    +0.184 A 
ATOM      6  C   UNL     1     -30.622 -13.280  18.877  0.00  0.00    +0.152 A 
ATOM      7  N   UNL     1     -30.807 -13.972  20.116  0.00  0.00    -0.341 N 
ATOM      8  N   UNL     1     -30.950 -13.915  17.720  0.00  0.00    -0.198 NA
ATOM      9  H   UNL     1     -31.547 -14.992  15.422  0.00  0.00    +0.149 HD
ATOM     10  H   UNL     1     -31.297 -14.894  20.125  0.00  0.00    +0.144 HD
ATOM     11  H   UNL     1     -30.365 -13.651  21.004  0.00  0.00    +0.144 HD
ENDROOT
BRANCH   5  12
ATOM     12  N   UNL     1     -29.750 -11.226  20.001  0.00  0.00    +0.061 N 
ATOM     13  O   UNL     1     -29.318 -11.870  21.138  0.00  0.00    -0.126 OA
ATOM     14  O   UNL     1     -29.664  -9.982  19.945  0.00  0.00    -0.126 OA
ENDBRANCH   5  12
BRANCH   1  15
ATOM     15  C   UNL     1     -30.885 -13.498  13.972  0.00  0.00    +0.073 C 
BRANCH  15  17
ATOM     16  C   UNL     1     -28.811 -14.948  13.588  0.00  0.00    +0.006 C 
ATOM     17  C   UNL     1     -30.195 -14.557  13.070  0.00  0.00    +0.019 C 
ENDBRANCH  15  17
BRANCH  15  18
ATOM     18  C   UNL     1     -32.241 -13.030  13.394  0.00  0.00    +0.019 C 
ATOM     19  C   UNL     1     -32.447 -13.443  11.938  0.00  0.00    +0.006 C 
ENDBRANCH  15  18
ENDBRANCH   1  15
TORSDOF 4
ENDMDL
MODEL 4
REMARK VINA RESULT:    -3.566      3.676      4.963
REMARK INTER + INTRA:          -4.974
REMARK INTER:                  -4.429
REMARK INTRA:                  -0.545
REMARK UNBOUND:                -0.574
REMARK  Name = 
REMARK  6 active torsions:
REMARK  status: ('A' for Active; 'I' for Inactive)
REMARK    1  A    between atoms: C_1  and  C_2
REMARK    2  A    between atoms: C_2  and  C_3
REMARK    3  A    between atoms: C_3  and  C_4
REMARK    4  A    between atoms: C_3  and  N_6
REMARK    5  A    between atoms: C_4  and  C_5
REMARK    6  A    between atoms: C_10  and  N_14
REMARK                            x       y       z     vdW  Elec       q    Type
REMARK                         _______ _______ _______ _____ _____    ______ ____
ROOT
ATOM      1  N   UNL     1     -29.178 -13.923  15.359  0.00  0.00    -0.311 N 
ATOM      2  C   UNL     1     -29.330 -13.649  16.758  0.00  0.00    +0.217 A 
ATOM      3  N   UNL     1     -30.534 -13.800  17.368  0.00  0.00    -0.221 NA
ATOM      4  C   UNL     1     -30.688 -13.544  18.691  0.00  0.00    +0.150 A 
ATOM      5  C   UNL     1     -29.596 -13.127  19.463  0.00  0.00    +0.184 A 
ATOM      6  C   UNL     1     -28.358 -12.949  18.807  0.00  0.00    +0.152 A 
ATOM      7  N   UNL     1     -27.209 -12.432  19.486  0.00  0.00    -0.341 N 
ATOM      8  N   UNL     1     -28.261 -13.222  17.479  0.00  0.00    -0.198 NA
ATOM      9  H   UNL     1     -28.227 -13.813  14.939  0.00  0.00    +0.149 HD
ATOM     10  H   UNL     1     -26.292 -12.386  18.990  0.00  0.00    +0.144 HD
ATOM     11  H   UNL     1     -27.274 -11.982  20.425  0.00  0.00    +0.144 HD
ENDROOT
BRANCH   5  12
ATOM     12  N   UNL     1     -29.758 -12.923  20.876  0.00  0.00    +0.061 N 
ATOM     13  O   UNL     1     -28.691 -13.116  21.723  0.00  0.00    -0.126 OA
ATOM     14  O   UNL     1     -30.787 -12.371  21.319  0.00  0.00    -0.126 OA
ENDBRANCH   5  12
BRANCH   1  15
ATOM     15  C   UNL     1     -30.294 -14.382  14.521  0.00  0.00    +0.073 C 
BRANCH  15  17
ATOM     16  C   UNL     1     -31.745 -13.237  12.750  0.00  0.00    +0.006 C 
ATOM     17  C   UNL     1     -31.223 -13.183  14.186  0.00  0.00    +0.019 C 
ENDBRANCH  15  17
BRANCH  15  18
ATOM     18  C   UNL     1     -29.735 -15.062  13.250  0.00  0.00    +0.019 C 
ATOM     19  C   UNL     1     -28.215 -14.959  13.133  0.00  0.00    +0.006 C 
ENDBRANCH  15  18
ENDBRANCH   1  15
TORSDOF 4
ENDMDL
MODEL 5
REMARK VINA RESULT:    -3.485      3.375      4.687
REMARK INTER + INTRA:          -4.874
REMARK INTER:                  -4.225
REMARK INTRA:                  -0.649
REMARK UNBOUND:                -0.574
REMARK  Name = 
REMARK  6 active torsions:
REMARK  status: ('A' for Active; 'I' for Inactive)
REMARK    1  A    between atoms: C_1  and  C_2
REMARK    2  A    between atoms: C_2  and  C_3
REMARK    3  A    between atoms: C_3  and  C_4
REMARK    4  A    between atoms: C_3  and  N_6
REMARK    5  A    between atoms: C_4  and  C_5
REMARK    6  A    between atoms: C_10  and  N_14
REMARK                            x       y       z     vdW  Elec       q    Type
REMARK                         _______ _______ _______ _____ _____    ______ ____
ROOT
ATOM      1  N   UNL     1     -33.082 -12.590  14.954  0.00  0.00    -0.311 N 
ATOM      2  C   UNL     1     -31.939 -12.514  15.816  0.00  0.00    +0.217 A 
ATOM      3  N   UNL     1     -31.252 -11.351  15.955  0.00  0.00    -0.221 NA
ATOM      4  C   UNL     1     -30.170 -11.268  16.768  0.00  0.00    +0.150 A 
ATOM      5  C   UNL     1     -29.743 -12.387  17.495  0.00  0.00    +0.184 A 
ATOM      6  C   UNL     1     -30.452 -13.596  17.317  0.00  0.00    +0.152 A 
ATOM      7  N   UNL     1     -30.036 -14.816  17.937  0.00  0.00    -0.341 N 
ATOM      8  N   UNL     1     -31.532 -13.620  16.490  0.00  0.00    -0.198 NA
ATOM      9  H   UNL     1     -33.591 -13.502  14.895  0.00  0.00    +0.149 HD
ATOM     10  H   UNL     1     -30.627 -15.671  17.845  0.00  0.00    +0.144 HD
ATOM     11  H   UNL     1     -29.098 -14.922  18.380  0.00  0.00    +0.144 HD
ENDROOT
BRANCH   5  12
ATOM     12  N   UNL     1     -28.637 -12.268  18.403  0.00  0.00    +0.061 N 
ATOM     13  O   UNL     1     -27.701 -13.274  18.481  0.00  0.00    -0.126 OA
ATOM     14  O   UNL     1     -28.395 -11.178  18.963  0.00  0.00    -0.126 OA
ENDBRANCH   5  12
BRANCH   1  15
ATOM     15  C   UNL     1     -33.572 -11.434  14.192  0.00  0.00    +0.073 C 
BRANCH  15  17
ATOM     16  C   UNL     1     -33.419 -13.035  12.200  0.00  0.00    +0.006 C 
ATOM     17  C   UNL     1     -34.223 -11.919  12.868  0.00  0.00    +0.019 C 
ENDBRANCH  15  17
BRANCH  15  18
ATOM     18  C   UNL     1     -34.558 -10.625  15.067  0.00  0.00    +0.019 C 
ATOM     19  C   UNL     1     -34.146  -9.164  15.243  0.00  0.00    +0.006 C 
ENDBRANCH  15  18
ENDBRANCH   1  15
TORSDOF 4
ENDMDL
MODEL 6
REMARK VINA RESULT:    -3.450      4.287      6.022
REMARK INTER + INTRA:          -4.830
REMARK INTER:                  -4.503
REMARK INTRA:                  -0.328
REMARK UNBOUND:                -0.574
REMARK  Name = 
REMARK  6 active torsions:
REMARK  status: ('A' for Active; 'I' for Inactive)
REMARK    1  A    between atoms: C_1  and  C_2
REMARK    2  A    between atoms: C_2  and  C_3
REMARK    3  A    between atoms: C_3  and  C_4
REMARK    4  A    between atoms: C_3  and  N_6
REMARK    5  A    between atoms: C_4  and  C_5
REMARK    6  A    between atoms: C_10  and  N_14
REMARK                            x       y       z     vdW  Elec       q    Type
REMARK                         _______ _______ _______ _____ _____    ______ ____
ROOT
ATOM      1  N   UNL     1     -31.756 -11.511  14.479  0.00  0.00    -0.311 N 
ATOM      2  C   UNL     1     -31.308 -11.008  15.744  0.00  0.00    +0.217 A 
ATOM      3  N   UNL     1     -30.306 -11.627  16.421  0.00  0.00    -0.221 NA
ATOM      4  C   UNL     1     -29.874 -11.158  17.618  0.00  0.00    +0.150 A 
ATOM      5  C   UNL     1     -30.450 -10.010  18.179  0.00  0.00    +0.184 A 
ATOM      6  C   UNL     1     -31.509  -9.396  17.475  0.00  0.00    +0.152 A 
ATOM      7  N   UNL     1     -32.227  -8.280  18.011  0.00  0.00    -0.341 N 
ATOM      8  N   UNL     1     -31.900  -9.908  16.277  0.00  0.00    -0.198 NA
ATOM      9  H   UNL     1     -32.516 -10.989  13.986  0.00  0.00    +0.149 HD
ATOM     10  H   UNL     1     -32.951  -7.804  17.429  0.00  0.00    +0.144 HD
ATOM     11  H   UNL     1     -32.143  -7.993  19.009  0.00  0.00    +0.144 HD
ENDROOT
BRANCH   5  12
ATOM     12  N   UNL     1     -29.938  -9.487  19.415  0.00  0.00    +0.061 N 
ATOM     13  O   UNL     1     -30.170  -8.173  19.752  0.00  0.00    -0.126 OA
ATOM     14  O   UNL     1     -29.474 -10.257  20.281  0.00  0.00    -0.126 OA
ENDBRANCH   5  12
BRANCH   1  15
ATOM     15  C   UNL     1     -31.164 -12.699  13.849  0.00  0.00    +0.073 C 
BRANCH  15  17
ATOM     16  C   UNL     1     -30.110 -14.841  14.772  0.00  0.00    +0.006 C 
ATOM     17  C   UNL     1     -31.335 -13.926  14.786  0.00  0.00    +0.019 C 
ENDBRANCH  15  17
BRANCH  15  18
ATOM     18  C   UNL     1     -31.815 -12.924  12.465  0.00  0.00    +0.019 C 
ATOM     19  C   UNL     1     -33.333 -12.755  12.480  0.00  0.00    +0.006 C 
ENDBRANCH  15  18
ENDBRANCH   1  15
TORSDOF 4
ENDMDL
MODEL 7
REMARK VINA RESULT:    -3.341      2.563      3.321
REMARK INTER + INTRA:          -4.696
REMARK INTER:                  -4.128
REMARK INTRA:                  -0.568
REMARK UNBOUND:                -0.574
REMARK  Name = 
REMARK  6 active torsions:
REMARK  status: ('A' for Active; 'I' for Inactive)
REMARK    1  A    between atoms: C_1  and  C_2
REMARK    2  A    between atoms: C_2  and  C_3
REMARK    3  A    between atoms: C_3  and  C_4
REMARK    4  A    between atoms: C_3  and  N_6
REMARK    5  A    between atoms: C_4  and  C_5
REMARK    6  A    between atoms: C_10  and  N_14
REMARK                            x       y       z     vdW  Elec       q    Type
REMARK                         _______ _______ _______ _____ _____    ______ ____
ROOT
ATOM      1  N   UNL     1     -32.486 -10.922  17.185  0.00  0.00    -0.311 N 
ATOM      2  C   UNL     1     -31.140 -11.215  17.579  0.00  0.00    +0.217 A 
ATOM      3  N   UNL     1     -30.177 -10.258  17.522  0.00  0.00    -0.221 NA
ATOM      4  C   UNL     1     -28.900 -10.525  17.893  0.00  0.00    +0.150 A 
ATOM      5  C   UNL     1     -28.549 -11.799  18.358  0.00  0.00    +0.184 A 
ATOM      6  C   UNL     1     -29.556 -12.789  18.385  0.00  0.00    +0.152 A 
ATOM      7  N   UNL     1     -29.276 -14.144  18.749  0.00  0.00    -0.341 N 
ATOM      8  N   UNL     1     -30.820 -12.465  18.003  0.00  0.00    -0.198 NA
ATOM      9  H   UNL     1     -33.197 -11.684  17.266  0.00  0.00    +0.149 HD
ATOM     10  H   UNL     1     -30.059 -14.830  18.832  0.00  0.00    +0.144 HD
ATOM     11  H   UNL     1     -28.303 -14.511  18.818  0.00  0.00    +0.144 HD
ENDROOT
BRANCH   5  12
ATOM     12  N   UNL     1     -27.209 -12.049  18.811  0.00  0.00    +0.061 N 
ATOM     13  O   UNL     1     -26.878 -13.280  19.329  0.00  0.00    -0.126 OA
ATOM     14  O   UNL     1     -26.293 -11.243  18.545  0.00  0.00    -0.126 OA
ENDBRANCH   5  12
BRANCH   1  15
ATOM     15  C   UNL     1     -32.897  -9.593  16.712  0.00  0.00    +0.073 C 
BRANCH  15  17
ATOM     16  C   UNL     1     -33.917 -11.152  14.956  0.00  0.00    +0.006 C 
ATOM     17  C   UNL     1     -33.526  -9.714  15.297  0.00  0.00    +0.019 C 
ENDBRANCH  15  17
BRANCH  15  18
ATOM     18  C   UNL     1     -33.873  -8.965  17.734  0.00  0.00    +0.019 C 
ATOM     19  C   UNL     1     -33.171  -8.103  18.783  0.00  0.00    +0.006 C 
ENDBRANCH  15  18
ENDBRANCH   1  15
TORSDOF 4
ENDMDL
MODEL 8
REMARK VINA RESULT:    -3.001      5.577      7.091
REMARK INTER + INTRA:          -4.277
REMARK INTER:                  -3.607
REMARK INTRA:                  -0.670
REMARK UNBOUND:                -0.574
REMARK  Name = 
REMARK  6 active torsions:
REMARK  status: ('A' for Active; 'I' for Inactive)
REMARK    1  A    between atoms: C_1  and  C_2
REMARK    2  A    between atoms: C_2  and  C_3
REMARK    3  A    between atoms: C_3  and  C_4
REMARK    4  A    between atoms: C_3  and  N_6
REMARK    5  A    between atoms: C_4  and  C_5
REMARK    6  A    between atoms: C_10  and  N_14
REMARK                            x       y       z     vdW  Elec       q    Type
REMARK                         _______ _______ _______ _____ _____    ______ ____
ROOT
ATOM      1  N   UNL     1     -31.592 -11.976  13.944  0.00  0.00    -0.311 N 
ATOM      2  C   UNL     1     -32.084 -11.640  15.247  0.00  0.00    +0.217 A 
ATOM      3  N   UNL     1     -32.703 -12.573  16.017  0.00  0.00    -0.221 NA
ATOM      4  C   UNL     1     -33.172 -12.266  17.252  0.00  0.00    +0.150 A 
ATOM      5  C   UNL     1     -33.016 -10.972  17.766  0.00  0.00    +0.184 A 
ATOM      6  C   UNL     1     -32.395 -10.007  16.943  0.00  0.00    +0.152 A 
ATOM      7  N   UNL     1     -32.278  -8.637  17.338  0.00  0.00    -0.341 N 
ATOM      8  N   UNL     1     -31.942 -10.372  15.713  0.00  0.00    -0.198 NA
ATOM      9  H   UNL     1     -31.104 -11.230  13.398  0.00  0.00    +0.149 HD
ATOM     10  H   UNL     1     -31.744  -7.970  16.737  0.00  0.00    +0.144 HD
ATOM     11  H   UNL     1     -32.807  -8.244  18.145  0.00  0.00    +0.144 HD
ENDROOT
BRANCH   5  12
ATOM     12  N   UNL     1     -33.458 -10.678  19.101  0.00  0.00    +0.061 N 
ATOM     13  O   UNL     1     -33.102 -11.508  20.140  0.00  0.00    -0.126 OA
ATOM     14  O   UNL     1     -33.975  -9.573  19.365  0.00  0.00    -0.126 OA
ENDBRANCH   5  12
BRANCH   1  15
ATOM     15  C   UNL     1     -31.718 -13.326  13.378  0.00  0.00    +0.073 C 
BRANCH  15  17
ATOM     16  C   UNL     1     -33.755 -12.751  11.937  0.00  0.00    +0.006 C 
ATOM     17  C   UNL     1     -32.306 -13.237  11.943  0.00  0.00    +0.019 C 
ENDBRANCH  15  17
BRANCH  15  18
ATOM     18  C   UNL     1     -30.339 -14.024  13.404  0.00  0.00    +0.019 C 
ATOM     19  C   UNL     1     -30.120 -14.877  14.652  0.00  0.00    +0.006 C 
ENDBRANCH  15  18
ENDBRANCH   1  15
TORSDOF 4
ENDMDL
