MODEL 1
REMARK VINA RESULT:    -5.778      0.000      0.000
REMARK INTER + INTRA:         -10.191
REMARK INTER:                  -8.312
REMARK INTRA:                  -1.879
REMARK UNBOUND:                -1.879
REMARK  Name = 
REMARK  9 active torsions:
REMARK  status: ('A' for Active; 'I' for Inactive)
REMARK    1  A    between atoms: C_1  and  O_2
REMARK    2  A    between atoms: O_2  and  C_3
REMARK    3  A    between atoms: C_7  and  C_12
REMARK    4  A    between atoms: C_12  and  C_13
REMARK    5  A    between atoms: N_15  and  C_16
REMARK    6  A    between atoms: C_16  and  C_17
REMARK    7  A    between atoms: C_16  and  C_21
REMARK    8  A    between atoms: C_17  and  C_18
REMARK    9  A    between atoms: C_18  and  O_20
REMARK                            x       y       z     vdW  Elec       q    Type
REMARK                         _______ _______ _______ _____ _____    ______ ____
ROOT
ATOM      1  C   UNL     1     -31.074 -10.750  16.787  0.00  0.00    +0.218 C 
ATOM      2  O   UNL     1     -30.523  -9.860  16.085  0.00  0.00    -0.275 OA
ATOM      3  N   UNL     1     -31.306 -12.059  16.247  0.00  0.00    -0.308 N 
ATOM      4  H   UNL     1     -31.773 -12.768  16.857  0.00  0.00    +0.149 HD
ENDROOT
BRANCH   1   5
ATOM      5  C   UNL     1     -31.445 -10.448  18.205  0.00  0.00    +0.134 C 
BRANCH   5  10
ATOM      6  C   UNL     1     -27.109 -13.051  19.869  0.00  0.00    +0.124 A 
ATOM      7  C   UNL     1     -27.162 -11.996  18.927  0.00  0.00    +0.046 A 
ATOM      8  C   UNL     1     -28.386 -11.386  18.595  0.00  0.00    +0.015 A 
ATOM      9  C   UNL     1     -29.535 -11.854  19.226  0.00  0.00    +0.024 A 
ATOM     10  C   UNL     1     -30.858 -11.480  19.117  0.00  0.00    +0.007 A 
ATOM     11  C   UNL     1     -31.548 -12.333  19.971  0.00  0.00    +0.200 A 
ATOM     12  O   UNL     1     -30.703 -13.154  20.570  0.00  0.00    -0.463 OA
ATOM     13  C   UNL     1     -29.498 -12.878  20.133  0.00  0.00    +0.139 A 
ATOM     14  C   UNL     1     -28.303 -13.501  20.486  0.00  0.00    +0.092 A 
BRANCH   6  16
ATOM     15  C   UNL     1     -25.641 -14.630  21.136  0.00  0.00    +0.277 C 
ATOM     16  O   UNL     1     -25.857 -13.619  20.157  0.00  0.00    -0.495 OA
ENDBRANCH   6  16
ENDBRANCH   5  10
ENDBRANCH   1   5
BRANCH   3  17
ATOM     17  C   UNL     1     -30.901 -12.424  14.885  0.00  0.00    +0.114 C 
BRANCH  17  18
ATOM     18  C   UNL     1     -32.094 -12.368  13.952  0.00  0.00    -0.027 A 
ATOM     19  C   UNL     1     -32.118 -13.158  12.790  0.00  0.00    +0.005 A 
ATOM     20  C   UNL     1     -33.226 -13.127  11.938  0.00  0.00    +0.000 A 
ATOM     21  C   UNL     1     -34.323 -12.315  12.241  0.00  0.00    +0.000 A 
ATOM     22  C   UNL     1     -34.313 -11.535  13.399  0.00  0.00    +0.000 A 
ATOM     23  C   UNL     1     -33.208 -11.563  14.256  0.00  0.00    +0.005 A 
ENDBRANCH  17  18
BRANCH  17  24
ATOM     24  C   UNL     1     -30.276 -13.831  14.852  0.00  0.00    +0.147 C 
BRANCH  24  25
ATOM     25  C   UNL     1     -29.721 -14.211  16.192  0.00  0.00    +0.307 C 
ATOM     26  O   UNL     1     -30.497 -14.450  17.155  0.00  0.00    -0.251 OA
BRANCH  25  27
ATOM     27  O   UNL     1     -28.343 -14.261  16.381  0.00  0.00    -0.481 OA
ATOM     28  H   UNL     1     -27.776 -13.425  16.289  0.00  0.00    +0.295 HD
ENDBRANCH  25  27
ENDBRANCH  24  25
ENDBRANCH  17  24
ENDBRANCH   3  17
TORSDOF 8
ENDMDL
MODEL 2
REMARK VINA RESULT:    -4.996      2.015      7.783
REMARK INTER + INTRA:          -9.065
REMARK INTER:                  -7.531
REMARK INTRA:                  -1.534
REMARK UNBOUND:                -1.879
REMARK  Name = 
REMARK  9 active torsions:
REMARK  status: ('A' for Active; 'I' for Inactive)
REMARK    1  A    between atoms: C_1  and  O_2
REMARK    2  A    between atoms: O_2  and  C_3
REMARK    3  A    between atoms: C_7  and  C_12
REMARK    4  A    between atoms: C_12  and  C_13
REMARK    5  A    between atoms: N_15  and  C_16
REMARK    6  A    between atoms: C_16  and  C_17
REMARK    7  A    between atoms: C_16  and  C_21
REMARK    8  A    between atoms: C_17  and  C_18
REMARK    9  A    between atoms: C_18  and  O_20
REMARK                            x       y       z     vdW  Elec       q    Type
REMARK                         _______ _______ _______ _____ _____    ______ ____
ROOT
ATOM      1  C   UNL     1     -29.365 -13.748  17.467  0.00  0.00    +0.218 C 
ATOM      2  O   UNL     1     -28.285 -13.567  16.842  0.00  0.00    -0.275 OA
ATOM      3  N   UNL     1     -29.572 -13.138  18.749  0.00  0.00    -0.308 N 
ATOM      4  H   UNL     1     -30.476 -13.318  19.240  0.00  0.00    +0.149 HD
ENDROOT
BRANCH   1   5
ATOM      5  C   UNL     1     -30.451 -14.566  16.843  0.00  0.00    +0.134 C 
BRANCH   5  10
ATOM      6  C   UNL     1     -33.811 -11.256  14.370  0.00  0.00    +0.124 A 
ATOM      7  C   UNL     1     -33.729 -11.508  15.761  0.00  0.00    +0.046 A 
ATOM      8  C   UNL     1     -32.772 -12.400  16.277  0.00  0.00    +0.015 A 
ATOM      9  C   UNL     1     -31.912 -13.022  15.375  0.00  0.00    +0.024 A 
ATOM     10  C   UNL     1     -30.893 -13.933  15.559  0.00  0.00    +0.007 A 
ATOM     11  C   UNL     1     -30.422 -14.213  14.281  0.00  0.00    +0.200 A 
ATOM     12  O   UNL     1     -31.093 -13.508  13.387  0.00  0.00    -0.463 OA
ATOM     13  C   UNL     1     -31.987 -12.794  14.028  0.00  0.00    +0.139 A 
ATOM     14  C   UNL     1     -32.920 -11.913  13.485  0.00  0.00    +0.092 A 
BRANCH   6  16
ATOM     15  C   UNL     1     -34.843  -8.980  14.282  0.00  0.00    +0.277 C 
ATOM     16  O   UNL     1     -34.787 -10.355  13.917  0.00  0.00    -0.495 OA
ENDBRANCH   6  16
ENDBRANCH   5  10
ENDBRANCH   1   5
BRANCH   3  17
ATOM     17  C   UNL     1     -28.563 -12.275  19.374  0.00  0.00    +0.114 C 
BRANCH  17  18
ATOM     18  C   UNL     1     -27.581 -13.109  20.171  0.00  0.00    -0.027 A 
ATOM     19  C   UNL     1     -26.229 -13.161  19.790  0.00  0.00    +0.005 A 
ATOM     20  C   UNL     1     -25.314 -13.912  20.535  0.00  0.00    +0.000 A 
ATOM     21  C   UNL     1     -25.738 -14.610  21.670  0.00  0.00    +0.000 A 
ATOM     22  C   UNL     1     -27.077 -14.556  22.062  0.00  0.00    +0.000 A 
ATOM     23  C   UNL     1     -27.996 -13.806  21.321  0.00  0.00    +0.005 A 
ENDBRANCH  17  18
BRANCH  17  24
ATOM     24  C   UNL     1     -29.223 -11.226  20.290  0.00  0.00    +0.147 C 
BRANCH  24  25
ATOM     25  C   UNL     1     -29.964 -10.197  19.491  0.00  0.00    +0.307 C 
ATOM     26  O   UNL     1     -30.745 -10.551  18.568  0.00  0.00    -0.251 OA
BRANCH  25  27
ATOM     27  O   UNL     1     -29.759  -8.844  19.745  0.00  0.00    -0.481 OA
ATOM     28  H   UNL     1     -28.927  -8.528  20.233  0.00  0.00    +0.295 HD
ENDBRANCH  25  27
ENDBRANCH  24  25
ENDBRANCH  17  24
ENDBRANCH   3  17
TORSDOF 8
ENDMDL
MODEL 3
REMARK VINA RESULT:    -4.982      2.033      7.385
REMARK INTER + INTRA:          -9.045
REMARK INTER:                  -7.552
REMARK INTRA:                  -1.494
REMARK UNBOUND:                -1.879
REMARK  Name = 
REMARK  9 active torsions:
REMARK  status: ('A' for Active; 'I' for Inactive)
REMARK    1  A    between atoms: C_1  and  O_2
REMARK    2  A    between atoms: O_2  and  C_3
REMARK    3  A    between atoms: C_7  and  C_12
REMARK    4  A    between atoms: C_12  and  C_13
REMARK    5  A    between atoms: N_15  and  C_16
REMARK    6  A    between atoms: C_16  and  C_17
REMARK    7  A    between atoms: C_16  and  C_21
REMARK    8  A    between atoms: C_17  and  C_18
REMARK    9  A    between atoms: C_18  and  O_20
REMARK                            x       y       z     vdW  Elec       q    Type
REMARK                         _______ _______ _______ _____ _____    ______ ____
ROOT
ATOM      1  C   UNL     1     -29.470 -10.228  18.652  0.00  0.00    +0.218 C 
ATOM      2  O   UNL     1     -29.637  -9.304  19.493  0.00  0.00    -0.275 OA
ATOM      3  N   UNL     1     -29.185 -11.565  19.091  0.00  0.00    -0.308 N 
ATOM      4  H   UNL     1     -29.045 -12.302  18.364  0.00  0.00    +0.149 HD
ENDROOT
BRANCH   1   5
ATOM      5  C   UNL     1     -29.614  -9.934  17.192  0.00  0.00    +0.134 C 
BRANCH   5  10
ATOM      6  C   UNL     1     -33.395 -11.829  13.958  0.00  0.00    +0.124 A 
ATOM      7  C   UNL     1     -32.028 -12.196  13.979  0.00  0.00    +0.046 A 
ATOM      8  C   UNL     1     -31.142 -11.621  14.909  0.00  0.00    +0.015 A 
ATOM      9  C   UNL     1     -31.657 -10.686  15.803  0.00  0.00    +0.024 A 
ATOM     10  C   UNL     1     -31.061  -9.954  16.808  0.00  0.00    +0.007 A 
ATOM     11  C   UNL     1     -32.078  -9.162  17.332  0.00  0.00    +0.200 A 
ATOM     12  O   UNL     1     -33.213  -9.410  16.703  0.00  0.00    -0.463 OA
ATOM     13  C   UNL     1     -32.975 -10.317  15.786  0.00  0.00    +0.139 A 
ATOM     14  C   UNL     1     -33.879 -10.870  14.882  0.00  0.00    +0.092 A 
BRANCH   6  16
ATOM     15  C   UNL     1     -33.764 -13.258  11.938  0.00  0.00    +0.277 C 
ATOM     16  O   UNL     1     -34.228 -12.438  13.006  0.00  0.00    -0.495 OA
ENDBRANCH   6  16
ENDBRANCH   5  10
ENDBRANCH   1   5
BRANCH   3  17
ATOM     17  C   UNL     1     -29.099 -11.917  20.512  0.00  0.00    +0.114 C 
BRANCH  17  18
ATOM     18  C   UNL     1     -27.924 -12.844  20.751  0.00  0.00    -0.027 A 
ATOM     19  C   UNL     1     -26.799 -12.787  19.910  0.00  0.00    +0.005 A 
ATOM     20  C   UNL     1     -25.702 -13.624  20.140  0.00  0.00    +0.000 A 
ATOM     21  C   UNL     1     -25.715 -14.519  21.213  0.00  0.00    +0.000 A 
ATOM     22  C   UNL     1     -26.824 -14.576  22.060  0.00  0.00    +0.000 A 
ATOM     23  C   UNL     1     -27.923 -13.741  21.836  0.00  0.00    +0.005 A 
ENDBRANCH  17  18
BRANCH  17  24
ATOM     24  C   UNL     1     -30.399 -12.585  20.997  0.00  0.00    +0.147 C 
BRANCH  24  25
ATOM     25  C   UNL     1     -31.238 -13.043  19.842  0.00  0.00    +0.307 C 
ATOM     26  O   UNL     1     -32.216 -12.350  19.453  0.00  0.00    -0.251 OA
BRANCH  25  27
ATOM     27  O   UNL     1     -30.958 -14.258  19.223  0.00  0.00    -0.481 OA
ATOM     28  H   UNL     1     -30.612 -15.047  19.760  0.00  0.00    +0.295 HD
ENDBRANCH  25  27
ENDBRANCH  24  25
ENDBRANCH  17  24
ENDBRANCH   3  17
TORSDOF 8
ENDMDL
MODEL 4
REMARK VINA RESULT:    -4.813      1.857      3.273
REMARK INTER + INTRA:          -8.802
REMARK INTER:                  -7.625
REMARK INTRA:                  -1.177
REMARK UNBOUND:                -1.879
REMARK  Name = 
REMARK  9 active torsions:
REMARK  status: ('A' for Active; 'I' for Inactive)
REMARK    1  A    between atoms: C_1  and  O_2
REMARK    2  A    between atoms: O_2  and  C_3
REMARK    3  A    between atoms: C_7  and  C_12
REMARK    4  A    between atoms: C_12  and  C_13
REMARK    5  A    between atoms: N_15  and  C_16
REMARK    6  A    between atoms: C_16  and  C_17
REMARK    7  A    between atoms: C_16  and  C_21
REMARK    8  A    between atoms: C_17  and  C_18
REMARK    9  A    between atoms: C_18  and  O_20
REMARK                            x       y       z     vdW  Elec       q    Type
REMARK                         _______ _______ _______ _____ _____    ______ ____
ROOT
ATOM      1  C   UNL     1     -31.796 -10.990  16.276  0.00  0.00    +0.218 C 
ATOM      2  O   UNL     1     -31.216 -10.392  15.329  0.00  0.00    -0.275 OA
ATOM      3  N   UNL     1     -32.448 -12.247  16.048  0.00  0.00    -0.308 N 
ATOM      4  H   UNL     1     -32.926 -12.709  16.854  0.00  0.00    +0.149 HD
ENDROOT
BRANCH   1   5
ATOM      5  C   UNL     1     -31.764 -10.402  17.651  0.00  0.00    +0.134 C 
BRANCH   5  10
ATOM      6  C   UNL     1     -27.357 -12.778  19.464  0.00  0.00    +0.124 A 
ATOM      7  C   UNL     1     -27.437 -11.762  18.482  0.00  0.00    +0.046 A 
ATOM      8  C   UNL     1     -28.678 -11.210  18.113  0.00  0.00    +0.015 A 
ATOM      9  C   UNL     1     -29.817 -11.697  18.748  0.00  0.00    +0.024 A 
ATOM     10  C   UNL     1     -31.151 -11.377  18.609  0.00  0.00    +0.007 A 
ATOM     11  C   UNL     1     -31.821 -12.223  19.486  0.00  0.00    +0.200 A 
ATOM     12  O   UNL     1     -30.955 -12.989  20.126  0.00  0.00    -0.463 OA
ATOM     13  C   UNL     1     -29.754 -12.685  19.693  0.00  0.00    +0.139 A 
ATOM     14  C   UNL     1     -28.542 -13.249  20.083  0.00  0.00    +0.092 A 
BRANCH   6  16
ATOM     15  C   UNL     1     -25.838 -14.193  20.858  0.00  0.00    +0.277 C 
ATOM     16  O   UNL     1     -26.090 -13.288  19.788  0.00  0.00    -0.495 OA
ENDBRANCH   6  16
ENDBRANCH   5  10
ENDBRANCH   1   5
BRANCH   3  17
ATOM     17  C   UNL     1     -32.452 -12.897  14.732  0.00  0.00    +0.114 C 
BRANCH  17  18
ATOM     18  C   UNL     1     -31.130 -13.598  14.491  0.00  0.00    -0.027 A 
ATOM     19  C   UNL     1     -30.670 -13.803  13.179  0.00  0.00    +0.005 A 
ATOM     20  C   UNL     1     -29.440 -14.429  12.952  0.00  0.00    +0.000 A 
ATOM     21  C   UNL     1     -28.656 -14.848  14.031  0.00  0.00    +0.000 A 
ATOM     22  C   UNL     1     -29.100 -14.639  15.338  0.00  0.00    +0.000 A 
ATOM     23  C   UNL     1     -30.328 -14.012  15.571  0.00  0.00    +0.005 A 
ENDBRANCH  17  18
BRANCH  17  24
ATOM     24  C   UNL     1     -32.714 -11.874  13.610  0.00  0.00    +0.147 C 
BRANCH  24  25
ATOM     25  C   UNL     1     -34.165 -11.841  13.234  0.00  0.00    +0.307 C 
ATOM     26  O   UNL     1     -34.891 -10.875  13.589  0.00  0.00    -0.251 OA
BRANCH  25  27
ATOM     27  O   UNL     1     -34.719 -12.901  12.522  0.00  0.00    -0.481 OA
ATOM     28  H   UNL     1     -35.218 -13.644  13.001  0.00  0.00    +0.295 HD
ENDBRANCH  25  27
ENDBRANCH  24  25
ENDBRANCH  17  24
ENDBRANCH   3  17
TORSDOF 8
ENDMDL
MODEL 5
REMARK VINA RESULT:    -4.809      2.332      5.149
REMARK INTER + INTRA:          -8.797
REMARK INTER:                  -6.598
REMARK INTRA:                  -2.199
REMARK UNBOUND:                -1.879
REMARK  Name = 
REMARK  9 active torsions:
REMARK  status: ('A' for Active; 'I' for Inactive)
REMARK    1  A    between atoms: C_1  and  O_2
REMARK    2  A    between atoms: O_2  and  C_3
REMARK    3  A    between atoms: C_7  and  C_12
REMARK    4  A    between atoms: C_12  and  C_13
REMARK    5  A    between atoms: N_15  and  C_16
REMARK    6  A    between atoms: C_16  and  C_17
REMARK    7  A    between atoms: C_16  and  C_21
REMARK    8  A    between atoms: C_17  and  C_18
REMARK    9  A    between atoms: C_18  and  O_20
REMARK                            x       y       z     vdW  Elec       q    Type
REMARK                         _______ _______ _______ _____ _____    ______ ____
ROOT
ATOM      1  C   UNL     1     -31.706 -12.038  19.955  0.00  0.00    +0.218 C 
ATOM      2  O   UNL     1     -32.869 -12.320  20.351  0.00  0.00    -0.275 OA
ATOM      3  N   UNL     1     -31.463 -10.824  19.229  0.00  0.00    -0.308 N 
ATOM      4  H   UNL     1     -30.488 -10.628  18.909  0.00  0.00    +0.149 HD
ENDROOT
BRANCH   1   5
ATOM      5  C   UNL     1     -30.570 -12.953  20.284  0.00  0.00    +0.134 C 
BRANCH   5  10
ATOM      6  C   UNL     1     -30.212 -14.550  15.217  0.00  0.00    +0.124 A 
ATOM      7  C   UNL     1     -31.383 -14.477  16.008  0.00  0.00    +0.046 A 
ATOM      8  C   UNL     1     -31.329 -14.014  17.336  0.00  0.00    +0.015 A 
ATOM      9  C   UNL     1     -30.089 -13.632  17.839  0.00  0.00    +0.024 A 
ATOM     10  C   UNL     1     -29.709 -13.153  19.075  0.00  0.00    +0.007 A 
ATOM     11  C   UNL     1     -28.331 -12.982  18.990  0.00  0.00    +0.200 A 
ATOM     12  O   UNL     1     -27.907 -13.315  17.783  0.00  0.00    -0.463 OA
ATOM     13  C   UNL     1     -28.948 -13.706  17.087  0.00  0.00    +0.139 A 
ATOM     14  C   UNL     1     -28.967 -14.155  15.768  0.00  0.00    +0.092 A 
BRANCH   6  16
ATOM     15  C   UNL     1     -29.801 -14.353  12.758  0.00  0.00    +0.277 C 
ATOM     16  O   UNL     1     -30.332 -15.019  13.899  0.00  0.00    -0.495 OA
ENDBRANCH   6  16
ENDBRANCH   5  10
ENDBRANCH   1   5
BRANCH   3  17
ATOM     17  C   UNL     1     -32.532  -9.862  18.937  0.00  0.00    +0.114 C 
BRANCH  17  18
ATOM     18  C   UNL     1     -33.115 -10.128  17.564  0.00  0.00    -0.027 A 
ATOM     19  C   UNL     1     -32.272 -10.204  16.443  0.00  0.00    +0.005 A 
ATOM     20  C   UNL     1     -32.803 -10.473  15.177  0.00  0.00    +0.000 A 
ATOM     21  C   UNL     1     -34.177 -10.674  15.020  0.00  0.00    +0.000 A 
ATOM     22  C   UNL     1     -35.022 -10.611  16.131  0.00  0.00    +0.000 A 
ATOM     23  C   UNL     1     -34.496 -10.344  17.399  0.00  0.00    +0.005 A 
ENDBRANCH  17  18
BRANCH  17  24
ATOM     24  C   UNL     1     -32.010  -8.415  19.013  0.00  0.00    +0.147 C 
BRANCH  24  25
ATOM     25  C   UNL     1     -30.931  -8.280  20.045  0.00  0.00    +0.307 C 
ATOM     26  O   UNL     1     -31.135  -7.609  21.093  0.00  0.00    -0.251 OA
BRANCH  25  27
ATOM     27  O   UNL     1     -29.688  -8.865  19.827  0.00  0.00    -0.481 OA
ATOM     28  H   UNL     1     -28.849  -8.473  20.243  0.00  0.00    +0.295 HD
ENDBRANCH  25  27
ENDBRANCH  24  25
ENDBRANCH  17  24
ENDBRANCH   3  17
TORSDOF 8
ENDMDL
MODEL 6
REMARK VINA RESULT:    -4.779      1.976      6.720
REMARK INTER + INTRA:          -8.753
REMARK INTER:                  -7.192
REMARK INTRA:                  -1.562
REMARK UNBOUND:                -1.879
REMARK  Name = 
REMARK  9 active torsions:
REMARK  status: ('A' for Active; 'I' for Inactive)
REMARK    1  A    between atoms: C_1  and  O_2
REMARK    2  A    between atoms: O_2  and  C_3
REMARK    3  A    between atoms: C_7  and  C_12
REMARK    4  A    between atoms: C_12  and  C_13
REMARK    5  A    between atoms: N_15  and  C_16
REMARK    6  A    between atoms: C_16  and  C_17
REMARK    7  A    between atoms: C_16  and  C_21
REMARK    8  A    between atoms: C_17  and  C_18
REMARK    9  A    between atoms: C_18  and  O_20
REMARK                            x       y       z     vdW  Elec       q    Type
REMARK                         _______ _______ _______ _____ _____    ______ ____
ROOT
ATOM      1  C   UNL     1     -29.652 -13.978  16.375  0.00  0.00    +0.218 C 
ATOM      2  O   UNL     1     -30.610 -14.704  16.756  0.00  0.00    -0.275 OA
ATOM      3  N   UNL     1     -29.237 -12.853  17.163  0.00  0.00    -0.308 N 
ATOM      4  H   UNL     1     -28.444 -12.270  16.811  0.00  0.00    +0.149 HD
ENDROOT
BRANCH   1   5
ATOM      5  C   UNL     1     -28.919 -14.323  15.117  0.00  0.00    +0.134 C 
BRANCH   5  10
ATOM      6  C   UNL     1     -33.197 -12.050  12.909  0.00  0.00    +0.124 A 
ATOM      7  C   UNL     1     -32.592 -11.711  14.142  0.00  0.00    +0.046 A 
ATOM      8  C   UNL     1     -31.446 -12.391  14.594  0.00  0.00    +0.015 A 
ATOM      9  C   UNL     1     -30.931 -13.401  13.787  0.00  0.00    +0.024 A 
ATOM     10  C   UNL     1     -29.848 -14.240  13.946  0.00  0.00    +0.007 A 
ATOM     11  C   UNL     1     -29.858 -15.062  12.824  0.00  0.00    +0.200 A 
ATOM     12  O   UNL     1     -30.863 -14.734  12.031  0.00  0.00    -0.463 OA
ATOM     13  C   UNL     1     -31.512 -13.744  12.596  0.00  0.00    +0.139 A 
ATOM     14  C   UNL     1     -32.645 -13.089  12.118  0.00  0.00    +0.092 A 
BRANCH   6  16
ATOM     15  C   UNL     1     -35.037 -10.412  13.342  0.00  0.00    +0.277 C 
ATOM     16  O   UNL     1     -34.339 -11.335  12.513  0.00  0.00    -0.495 OA
ENDBRANCH   6  16
ENDBRANCH   5  10
ENDBRANCH   1   5
BRANCH   3  17
ATOM     17  C   UNL     1     -29.881 -12.512  18.436  0.00  0.00    +0.114 C 
BRANCH  17  18
ATOM     18  C   UNL     1     -30.992 -11.507  18.208  0.00  0.00    -0.027 A 
ATOM     19  C   UNL     1     -30.700 -10.242  17.669  0.00  0.00    +0.005 A 
ATOM     20  C   UNL     1     -31.725  -9.320  17.434  0.00  0.00    +0.000 A 
ATOM     21  C   UNL     1     -33.050  -9.654  17.728  0.00  0.00    +0.000 A 
ATOM     22  C   UNL     1     -33.352 -10.912  18.254  0.00  0.00    +0.000 A 
ATOM     23  C   UNL     1     -32.331 -11.838  18.489  0.00  0.00    +0.005 A 
ENDBRANCH  17  18
BRANCH  17  24
ATOM     24  C   UNL     1     -28.860 -11.943  19.439  0.00  0.00    +0.147 C 
BRANCH  24  25
ATOM     25  C   UNL     1     -27.486 -12.486  19.182  0.00  0.00    +0.307 C 
ATOM     26  O   UNL     1     -26.510 -11.702  19.040  0.00  0.00    -0.251 OA
BRANCH  25  27
ATOM     27  O   UNL     1     -27.297 -13.860  19.061  0.00  0.00    -0.481 OA
ATOM     28  H   UNL     1     -26.844 -14.251  18.241  0.00  0.00    +0.295 HD
ENDBRANCH  25  27
ENDBRANCH  24  25
ENDBRANCH  17  24
ENDBRANCH   3  17
TORSDOF 8
ENDMDL
MODEL 7
REMARK VINA RESULT:    -4.671      1.761      2.667
REMARK INTER + INTRA:          -8.598
REMARK INTER:                  -6.876
REMARK INTRA:                  -1.721
REMARK UNBOUND:                -1.879
REMARK  Name = 
REMARK  9 active torsions:
REMARK  status: ('A' for Active; 'I' for Inactive)
REMARK    1  A    between atoms: C_1  and  O_2
REMARK    2  A    between atoms: O_2  and  C_3
REMARK    3  A    between atoms: C_7  and  C_12
REMARK    4  A    between atoms: C_12  and  C_13
REMARK    5  A    between atoms: N_15  and  C_16
REMARK    6  A    between atoms: C_16  and  C_17
REMARK    7  A    between atoms: C_16  and  C_21
REMARK    8  A    between atoms: C_17  and  C_18
REMARK    9  A    between atoms: C_18  and  O_20
REMARK                            x       y       z     vdW  Elec       q    Type
REMARK                         _______ _______ _______ _____ _____    ______ ____
ROOT
ATOM      1  C   UNL     1     -33.072 -11.290  18.332  0.00  0.00    +0.218 C 
ATOM      2  O   UNL     1     -33.727 -10.217  18.428  0.00  0.00    -0.275 OA
ATOM      3  N   UNL     1     -32.393 -11.619  17.112  0.00  0.00    -0.308 N 
ATOM      4  H   UNL     1     -31.867 -12.521  17.068  0.00  0.00    +0.149 HD
ENDROOT
BRANCH   1   5
ATOM      5  C   UNL     1     -32.968 -12.200  19.515  0.00  0.00    +0.134 C 
BRANCH   5  10
ATOM      6  C   UNL     1     -27.732 -13.139  19.753  0.00  0.00    +0.124 A 
ATOM      7  C   UNL     1     -28.631 -13.567  18.748  0.00  0.00    +0.046 A 
ATOM      8  C   UNL     1     -29.995 -13.226  18.806  0.00  0.00    +0.015 A 
ATOM      9  C   UNL     1     -30.424 -12.454  19.883  0.00  0.00    +0.024 A 
ATOM     10  C   UNL     1     -31.669 -11.970  20.225  0.00  0.00    +0.007 A 
ATOM     11  C   UNL     1     -31.479 -11.295  21.426  0.00  0.00    +0.200 A 
ATOM     12  O   UNL     1     -30.206 -11.349  21.778  0.00  0.00    -0.463 OA
ATOM     13  C   UNL     1     -29.566 -12.040  20.865  0.00  0.00    +0.139 A 
ATOM     14  C   UNL     1     -28.210 -12.357  20.835  0.00  0.00    +0.092 A 
BRANCH   6  16
ATOM     15  C   UNL     1     -25.605 -14.048  20.703  0.00  0.00    +0.277 C 
ATOM     16  O   UNL     1     -26.383 -13.511  19.638  0.00  0.00    -0.495 OA
ENDBRANCH   6  16
ENDBRANCH   5  10
ENDBRANCH   1   5
BRANCH   3  17
ATOM     17  C   UNL     1     -32.410 -10.729  15.945  0.00  0.00    +0.114 C 
BRANCH  17  18
ATOM     18  C   UNL     1     -32.772 -11.509  14.698  0.00  0.00    -0.027 A 
ATOM     19  C   UNL     1     -34.014 -11.304  14.073  0.00  0.00    +0.005 A 
ATOM     20  C   UNL     1     -34.343 -12.004  12.908  0.00  0.00    +0.000 A 
ATOM     21  C   UNL     1     -33.434 -12.909  12.353  0.00  0.00    +0.000 A 
ATOM     22  C   UNL     1     -32.194 -13.112  12.960  0.00  0.00    +0.000 A 
ATOM     23  C   UNL     1     -31.858 -12.413  14.124  0.00  0.00    +0.005 A 
ENDBRANCH  17  18
BRANCH  17  24
ATOM     24  C   UNL     1     -31.046 -10.040  15.755  0.00  0.00    +0.147 C 
BRANCH  24  25
ATOM     25  C   UNL     1     -30.407  -9.726  17.074  0.00  0.00    +0.307 C 
ATOM     26  O   UNL     1     -29.234 -10.116  17.320  0.00  0.00    -0.251 OA
BRANCH  25  27
ATOM     27  O   UNL     1     -31.127  -9.036  18.045  0.00  0.00    -0.481 OA
ATOM     28  H   UNL     1     -30.695  -8.779  18.927  0.00  0.00    +0.295 HD
ENDBRANCH  25  27
ENDBRANCH  24  25
ENDBRANCH  17  24
ENDBRANCH   3  17
TORSDOF 8
ENDMDL
MODEL 8
REMARK VINA RESULT:    -4.609      1.947      6.858
REMARK INTER + INTRA:          -8.509
REMARK INTER:                  -6.596
REMARK INTRA:                  -1.913
REMARK UNBOUND:                -1.879
REMARK  Name = 
REMARK  9 active torsions:
REMARK  status: ('A' for Active; 'I' for Inactive)
REMARK    1  A    between atoms: C_1  and  O_2
REMARK    2  A    between atoms: O_2  and  C_3
REMARK    3  A    between atoms: C_7  and  C_12
REMARK    4  A    between atoms: C_12  and  C_13
REMARK    5  A    between atoms: N_15  and  C_16
REMARK    6  A    between atoms: C_16  and  C_17
REMARK    7  A    between atoms: C_16  and  C_21
REMARK    8  A    between atoms: C_17  and  C_18
REMARK    9  A    between atoms: C_18  and  O_20
REMARK                            x       y       z     vdW  Elec       q    Type
REMARK                         _______ _______ _______ _____ _____    ______ ____
ROOT
ATOM      1  C   UNL     1     -29.907 -13.867  17.574  0.00  0.00    +0.218 C 
ATOM      2  O   UNL     1     -30.826 -14.675  17.877  0.00  0.00    -0.275 OA
ATOM      3  N   UNL     1     -29.209 -13.145  18.599  0.00  0.00    -0.308 N 
ATOM      4  H   UNL     1     -28.458 -12.478  18.309  0.00  0.00    +0.149 HD
ENDROOT
BRANCH   1   5
ATOM      5  C   UNL     1     -29.516 -13.696  16.140  0.00  0.00    +0.134 C 
BRANCH   5  10
ATOM      6  C   UNL     1     -32.956  -9.659  15.667  0.00  0.00    +0.124 A 
ATOM      7  C   UNL     1     -31.918  -9.789  16.621  0.00  0.00    +0.046 A 
ATOM      8  C   UNL     1     -31.068 -10.911  16.614  0.00  0.00    +0.015 A 
ATOM      9  C   UNL     1     -31.283 -11.881  15.639  0.00  0.00    +0.024 A 
ATOM     10  C   UNL     1     -30.642 -13.073  15.374  0.00  0.00    +0.007 A 
ATOM     11  C   UNL     1     -31.329 -13.623  14.297  0.00  0.00    +0.200 A 
ATOM     12  O   UNL     1     -32.304 -12.814  13.921  0.00  0.00    -0.463 OA
ATOM     13  C   UNL     1     -32.288 -11.770  14.716  0.00  0.00    +0.139 A 
ATOM     14  C   UNL     1     -33.144 -10.671  14.692  0.00  0.00    +0.092 A 
BRANCH   6  16
ATOM     15  C   UNL     1     -34.798  -8.214  14.788  0.00  0.00    +0.277 C 
ATOM     16  O   UNL     1     -33.770  -8.517  15.726  0.00  0.00    -0.495 OA
ENDBRANCH   6  16
ENDBRANCH   5  10
ENDBRANCH   1   5
BRANCH   3  17
ATOM     17  C   UNL     1     -29.511 -13.326  20.024  0.00  0.00    +0.114 C 
BRANCH  17  18
ATOM     18  C   UNL     1     -30.397 -12.200  20.517  0.00  0.00    -0.027 A 
ATOM     19  C   UNL     1     -29.832 -11.097  21.180  0.00  0.00    +0.005 A 
ATOM     20  C   UNL     1     -30.643 -10.045  21.617  0.00  0.00    +0.000 A 
ATOM     21  C   UNL     1     -32.021 -10.080  21.391  0.00  0.00    +0.000 A 
ATOM     22  C   UNL     1     -32.590 -11.167  20.724  0.00  0.00    +0.000 A 
ATOM     23  C   UNL     1     -31.784 -12.221  20.283  0.00  0.00    +0.005 A 
ENDBRANCH  17  18
BRANCH  17  24
ATOM     24  C   UNL     1     -28.219 -13.381  20.860  0.00  0.00    +0.147 C 
BRANCH  24  25
ATOM     25  C   UNL     1     -27.013 -13.556  19.987  0.00  0.00    +0.307 C 
ATOM     26  O   UNL     1     -26.589 -12.596  19.291  0.00  0.00    -0.251 OA
BRANCH  25  27
ATOM     27  O   UNL     1     -26.384 -14.795  19.917  0.00  0.00    -0.481 OA
ATOM     28  H   UNL     1     -26.847 -15.589  19.487  0.00  0.00    +0.295 HD
ENDBRANCH  25  27
ENDBRANCH  24  25
ENDBRANCH  17  24
ENDBRANCH   3  17
TORSDOF 8
ENDMDL
MODEL 9
REMARK VINA RESULT:    -4.242      1.860      3.558
REMARK INTER + INTRA:          -7.981
REMARK INTER:                  -6.965
REMARK INTRA:                  -1.017
REMARK UNBOUND:                -1.879
REMARK  Name = 
REMARK  9 active torsions:
REMARK  status: ('A' for Active; 'I' for Inactive)
REMARK    1  A    between atoms: C_1  and  O_2
REMARK    2  A    between atoms: O_2  and  C_3
REMARK    3  A    between atoms: C_7  and  C_12
REMARK    4  A    between atoms: C_12  and  C_13
REMARK    5  A    between atoms: N_15  and  C_16
REMARK    6  A    between atoms: C_16  and  C_17
REMARK    7  A    between atoms: C_16  and  C_21
REMARK    8  A    between atoms: C_17  and  C_18
REMARK    9  A    between atoms: C_18  and  O_20
REMARK                            x       y       z     vdW  Elec       q    Type
REMARK                         _______ _______ _______ _____ _____    ______ ____
ROOT
ATOM      1  C   UNL     1     -31.028 -10.832  16.595  0.00  0.00    +0.218 C 
ATOM      2  O   UNL     1     -30.915 -10.258  15.478  0.00  0.00    -0.275 OA
ATOM      3  N   UNL     1     -31.681 -12.106  16.692  0.00  0.00    -0.308 N 
ATOM      4  H   UNL     1     -31.763 -12.548  17.635  0.00  0.00    +0.149 HD
ENDROOT
BRANCH   1   5
ATOM      5  C   UNL     1     -30.437 -10.199  17.815  0.00  0.00    +0.134 C 
BRANCH   5  10
ATOM      6  C   UNL     1     -27.775 -13.678  20.843  0.00  0.00    +0.124 A 
ATOM      7  C   UNL     1     -29.167 -13.425  20.857  0.00  0.00    +0.046 A 
ATOM      8  C   UNL     1     -29.738 -12.484  19.980  0.00  0.00    +0.015 A 
ATOM      9  C   UNL     1     -28.888 -11.816  19.103  0.00  0.00    +0.024 A 
ATOM     10  C   UNL     1     -29.130 -10.853  18.146  0.00  0.00    +0.007 A 
ATOM     11  C   UNL     1     -27.882 -10.546  17.615  0.00  0.00    +0.200 A 
ATOM     12  O   UNL     1     -26.951 -11.284  18.194  0.00  0.00    -0.463 OA
ATOM     13  C   UNL     1     -27.539 -12.046  19.085  0.00  0.00    +0.139 A 
ATOM     14  C   UNL     1     -26.942 -12.974  19.937  0.00  0.00    +0.092 A 
BRANCH   6  16
ATOM     15  C   UNL     1     -25.886 -14.773  22.062  0.00  0.00    +0.277 C 
ATOM     16  O   UNL     1     -27.266 -14.629  21.742  0.00  0.00    -0.495 OA
ENDBRANCH   6  16
ENDBRANCH   5  10
ENDBRANCH   1   5
BRANCH   3  17
ATOM     17  C   UNL     1     -32.220 -12.798  15.515  0.00  0.00    +0.114 C 
BRANCH  17  18
ATOM     18  C   UNL     1     -31.107 -13.508  14.771  0.00  0.00    -0.027 A 
ATOM     19  C   UNL     1     -30.076 -14.144  15.484  0.00  0.00    +0.005 A 
ATOM     20  C   UNL     1     -29.059 -14.820  14.802  0.00  0.00    +0.000 A 
ATOM     21  C   UNL     1     -29.066 -14.874  13.405  0.00  0.00    +0.000 A 
ATOM     22  C   UNL     1     -30.092 -14.254  12.689  0.00  0.00    +0.000 A 
ATOM     23  C   UNL     1     -31.112 -13.578  13.365  0.00  0.00    +0.005 A 
ENDBRANCH  17  18
BRANCH  17  24
ATOM     24  C   UNL     1     -32.935 -11.812  14.572  0.00  0.00    +0.147 C 
BRANCH  24  25
ATOM     25  C   UNL     1     -34.274 -11.415  15.115  0.00  0.00    +0.307 C 
ATOM     26  O   UNL     1     -34.992 -10.588  14.492  0.00  0.00    -0.251 OA
BRANCH  25  27
ATOM     27  O   UNL     1     -34.709 -11.933  16.332  0.00  0.00    -0.481 OA
ATOM     28  H   UNL     1     -35.486 -12.584  16.371  0.00  0.00    +0.295 HD
ENDBRANCH  25  27
ENDBRANCH  24  25
ENDBRANCH  17  24
ENDBRANCH   3  17
TORSDOF 8
ENDMDL
