MODEL 1
REMARK VINA RESULT:    -4.445      0.000      0.000
REMARK INTER + INTRA:          -7.107
REMARK INTER:                  -5.744
REMARK INTRA:                  -1.363
REMARK UNBOUND:                -1.363
REMARK  Name = 
REMARK  5 active torsions:
REMARK  status: ('A' for Active; 'I' for Inactive)
REMARK    1  A    between atoms: C_2  and  C_20
REMARK    2  A    between atoms: N_3  and  C_4
REMARK    3  A    between atoms: C_4  and  C_5
REMARK    4  A    between atoms: C_10  and  S_11
REMARK    5  A    between atoms: S_11  and  N_14
REMARK                            x       y       z     vdW  Elec       q    Type
REMARK                         _______ _______ _______ _____ _____    ______ ____
ROOT
ATOM      1  C   UNL     1     -31.852 -10.660  15.664  0.00  0.00    -0.004 A 
ATOM      2  C   UNL     1     -31.586 -11.463  14.536  0.00  0.00    +0.007 A 
ATOM      3  C   UNL     1     -32.626 -12.034  13.801  0.00  0.00    +0.000 A 
ATOM      4  C   UNL     1     -33.947 -11.826  14.186  0.00  0.00    +0.002 A 
ATOM      5  C   UNL     1     -34.234 -11.069  15.321  0.00  0.00    +0.029 A 
ATOM      6  C   UNL     1     -33.201 -10.505  16.089  0.00  0.00    +0.110 A 
ENDROOT
BRANCH   6   7
ATOM      7  S   UNL     1     -33.639  -9.615  17.560  0.00  0.00    +0.061 S 
ATOM      8  O   UNL     1     -35.062  -9.949  17.913  0.00  0.00    -0.153 OA
ATOM      9  O   UNL     1     -33.518  -8.135  17.321  0.00  0.00    -0.153 OA
BRANCH   7  10
ATOM     10  N   UNL     1     -32.587 -10.061  18.883  0.00  0.00    -0.177 NA
ATOM     11  C   UNL     1     -32.546  -8.994  19.916  0.00  0.00    +0.109 C 
ATOM     12  C   UNL     1     -33.392  -9.323  21.156  0.00  0.00    +0.017 C 
ATOM     13  C   UNL     1     -32.933 -10.637  21.810  0.00  0.00    +0.003 C 
ATOM     14  C   UNL     1     -32.380 -11.647  20.789  0.00  0.00    +0.017 C 
ATOM     15  C   UNL     1     -32.962 -11.397  19.395  0.00  0.00    +0.109 C 
ENDBRANCH   7  10
ENDBRANCH   6   7
BRANCH   1  16
ATOM     16  C   UNL     1     -30.699 -10.049  16.440  0.00  0.00    +0.141 C 
BRANCH  16  19
ATOM     17  O   UNL     1     -29.301  -9.514  18.881  0.00  0.00    -0.270 OA
ATOM     18  C   UNL     1     -29.261 -10.696  18.442  0.00  0.00    +0.246 C 
ATOM     19  N   UNL     1     -30.010 -11.044  17.264  0.00  0.00    -0.307 N 
ATOM     20  H   UNL     1     -30.163 -12.050  17.029  0.00  0.00    +0.149 HD
BRANCH  18  21
ATOM     21  C   UNL     1     -28.463 -11.712  19.169  0.00  0.00    +0.055 A 
ATOM     22  C   UNL     1     -28.983 -12.336  20.316  0.00  0.00    +0.016 A 
ATOM     23  C   UNL     1     -28.230 -13.290  21.001  0.00  0.00    +0.020 A 
ATOM     24  C   UNL     1     -26.953 -13.611  20.542  0.00  0.00    +0.111 A 
ATOM     25  N   UNL     1     -26.451 -12.994  19.441  0.00  0.00    -0.263 NA
ATOM     26  C   UNL     1     -27.165 -12.063  18.753  0.00  0.00    +0.123 A 
ENDBRANCH  18  21
ENDBRANCH  16  19
ENDBRANCH   1  16
TORSDOF 5
ENDMDL
MODEL 2
REMARK VINA RESULT:    -4.441      2.216      4.981
REMARK INTER + INTRA:          -7.103
REMARK INTER:                  -5.148
REMARK INTRA:                  -1.955
REMARK UNBOUND:                -1.363
REMARK  Name = 
REMARK  5 active torsions:
REMARK  status: ('A' for Active; 'I' for Inactive)
REMARK    1  A    between atoms: C_2  and  C_20
REMARK    2  A    between atoms: N_3  and  C_4
REMARK    3  A    between atoms: C_4  and  C_5
REMARK    4  A    between atoms: C_10  and  S_11
REMARK    5  A    between atoms: S_11  and  N_14
REMARK                            x       y       z     vdW  Elec       q    Type
REMARK                         _______ _______ _______ _____ _____    ______ ____
ROOT
ATOM      1  C   UNL     1     -32.200 -10.256  20.197  0.00  0.00    -0.004 A 
ATOM      2  C   UNL     1     -31.275  -9.902  21.200  0.00  0.00    +0.007 A 
ATOM      3  C   UNL     1     -30.799  -8.594  21.307  0.00  0.00    +0.000 A 
ATOM      4  C   UNL     1     -31.225  -7.622  20.407  0.00  0.00    +0.002 A 
ATOM      5  C   UNL     1     -32.109  -7.957  19.381  0.00  0.00    +0.029 A 
ATOM      6  C   UNL     1     -32.581  -9.273  19.242  0.00  0.00    +0.110 A 
ENDROOT
BRANCH   6   7
ATOM      7  S   UNL     1     -33.646  -9.641  17.871  0.00  0.00    +0.061 S 
ATOM      8  O   UNL     1     -33.850  -8.382  17.074  0.00  0.00    -0.153 OA
ATOM      9  O   UNL     1     -34.976 -10.137  18.370  0.00  0.00    -0.153 OA
BRANCH   7  10
ATOM     10  N   UNL     1     -32.933 -10.870  16.853  0.00  0.00    -0.177 NA
ATOM     11  C   UNL     1     -33.980 -11.703  16.207  0.00  0.00    +0.109 C 
ATOM     12  C   UNL     1     -34.210 -11.344  14.731  0.00  0.00    +0.017 C 
ATOM     13  C   UNL     1     -32.915 -11.489  13.914  0.00  0.00    +0.003 C 
ATOM     14  C   UNL     1     -31.654 -11.183  14.741  0.00  0.00    +0.017 C 
ATOM     15  C   UNL     1     -31.975 -10.249  15.912  0.00  0.00    +0.109 C 
ENDBRANCH   7  10
ENDBRANCH   6   7
BRANCH   1  16
ATOM     16  C   UNL     1     -32.703 -11.686  20.110  0.00  0.00    +0.141 C 
BRANCH  16  19
ATOM     17  O   UNL     1     -30.211 -13.092  20.016  0.00  0.00    -0.270 OA
ATOM     18  C   UNL     1     -30.865 -13.008  18.941  0.00  0.00    +0.246 C 
ATOM     19  N   UNL     1     -32.161 -12.384  18.943  0.00  0.00    -0.307 N 
ATOM     20  H   UNL     1     -32.796 -12.511  18.123  0.00  0.00    +0.149 HD
BRANCH  18  21
ATOM     21  C   UNL     1     -30.294 -13.582  17.699  0.00  0.00    +0.055 A 
ATOM     22  C   UNL     1     -31.111 -14.298  16.807  0.00  0.00    +0.016 A 
ATOM     23  C   UNL     1     -30.572 -14.840  15.639  0.00  0.00    +0.020 A 
ATOM     24  C   UNL     1     -29.214 -14.672  15.371  0.00  0.00    +0.111 A 
ATOM     25  N   UNL     1     -28.428 -13.990  16.244  0.00  0.00    -0.263 NA
ATOM     26  C   UNL     1     -28.928 -13.450  17.388  0.00  0.00    +0.123 A 
ENDBRANCH  18  21
ENDBRANCH  16  19
ENDBRANCH   1  16
TORSDOF 5
ENDMDL
MODEL 3
REMARK VINA RESULT:    -4.244      2.267      2.813
REMARK INTER + INTRA:          -6.848
REMARK INTER:                  -6.166
REMARK INTRA:                  -0.682
REMARK UNBOUND:                -1.363
REMARK  Name = 
REMARK  5 active torsions:
REMARK  status: ('A' for Active; 'I' for Inactive)
REMARK    1  A    between atoms: C_2  and  C_20
REMARK    2  A    between atoms: N_3  and  C_4
REMARK    3  A    between atoms: C_4  and  C_5
REMARK    4  A    between atoms: C_10  and  S_11
REMARK    5  A    between atoms: S_11  and  N_14
REMARK                            x       y       z     vdW  Elec       q    Type
REMARK                         _______ _______ _______ _____ _____    ______ ____
ROOT
ATOM      1  C   UNL     1     -30.967 -13.858  16.341  0.00  0.00    -0.004 A 
ATOM      2  C   UNL     1     -30.245 -14.818  15.603  0.00  0.00    +0.007 A 
ATOM      3  C   UNL     1     -30.139 -14.723  14.215  0.00  0.00    +0.000 A 
ATOM      4  C   UNL     1     -30.762 -13.680  13.538  0.00  0.00    +0.002 A 
ATOM      5  C   UNL     1     -31.515 -12.740  14.241  0.00  0.00    +0.029 A 
ATOM      6  C   UNL     1     -31.655 -12.831  15.637  0.00  0.00    +0.110 A 
ENDROOT
BRANCH   6   7
ATOM      7  S   UNL     1     -32.687 -11.643  16.456  0.00  0.00    +0.061 S 
ATOM      8  O   UNL     1     -34.051 -12.247  16.645  0.00  0.00    -0.153 OA
ATOM      9  O   UNL     1     -32.804 -10.398  15.618  0.00  0.00    -0.153 OA
BRANCH   7  10
ATOM     10  N   UNL     1     -32.014 -11.214  18.011  0.00  0.00    -0.177 NA
ATOM     11  C   UNL     1     -31.126 -10.029  17.901  0.00  0.00    +0.109 C 
ATOM     12  C   UNL     1     -31.782  -8.734  18.405  0.00  0.00    +0.017 C 
ATOM     13  C   UNL     1     -32.219  -8.867  19.874  0.00  0.00    +0.003 C 
ATOM     14  C   UNL     1     -32.632 -10.302  20.243  0.00  0.00    +0.017 C 
ATOM     15  C   UNL     1     -33.100 -11.077  19.007  0.00  0.00    +0.109 C 
ENDBRANCH   7  10
ENDBRANCH   6   7
BRANCH   1  16
ATOM     16  C   UNL     1     -31.060 -13.986  17.852  0.00  0.00    +0.141 C 
BRANCH  16  19
ATOM     17  O   UNL     1     -29.997 -12.592  20.115  0.00  0.00    -0.270 OA
ATOM     18  C   UNL     1     -29.244 -13.432  19.552  0.00  0.00    +0.246 C 
ATOM     19  N   UNL     1     -29.749 -14.220  18.460  0.00  0.00    -0.307 N 
ATOM     20  H   UNL     1     -29.218 -15.062  18.141  0.00  0.00    +0.149 HD
BRANCH  18  21
ATOM     21  C   UNL     1     -27.858 -13.608  20.046  0.00  0.00    +0.055 A 
ATOM     22  C   UNL     1     -27.602 -14.421  21.163  0.00  0.00    +0.016 A 
ATOM     23  C   UNL     1     -26.296 -14.586  21.630  0.00  0.00    +0.020 A 
ATOM     24  C   UNL     1     -25.251 -13.927  20.983  0.00  0.00    +0.111 A 
ATOM     25  N   UNL     1     -25.509 -13.132  19.912  0.00  0.00    -0.263 NA
ATOM     26  C   UNL     1     -26.770 -12.957  19.435  0.00  0.00    +0.123 A 
ENDBRANCH  18  21
ENDBRANCH  16  19
ENDBRANCH   1  16
TORSDOF 5
ENDMDL
MODEL 4
REMARK VINA RESULT:    -4.216      2.590      3.424
REMARK INTER + INTRA:          -6.811
REMARK INTER:                  -5.299
REMARK INTRA:                  -1.512
REMARK UNBOUND:                -1.363
REMARK  Name = 
REMARK  5 active torsions:
REMARK  status: ('A' for Active; 'I' for Inactive)
REMARK    1  A    between atoms: C_2  and  C_20
REMARK    2  A    between atoms: N_3  and  C_4
REMARK    3  A    between atoms: C_4  and  C_5
REMARK    4  A    between atoms: C_10  and  S_11
REMARK    5  A    between atoms: S_11  and  N_14
REMARK                            x       y       z     vdW  Elec       q    Type
REMARK                         _______ _______ _______ _____ _____    ______ ____
ROOT
ATOM      1  C   UNL     1     -31.615 -13.112  14.390  0.00  0.00    -0.004 A 
ATOM      2  C   UNL     1     -31.203 -13.417  13.075  0.00  0.00    +0.007 A 
ATOM      3  C   UNL     1     -31.999 -13.080  11.980  0.00  0.00    +0.000 A 
ATOM      4  C   UNL     1     -33.223 -12.448  12.175  0.00  0.00    +0.002 A 
ATOM      5  C   UNL     1     -33.670 -12.173  13.467  0.00  0.00    +0.029 A 
ATOM      6  C   UNL     1     -32.895 -12.525  14.585  0.00  0.00    +0.110 A 
ENDROOT
BRANCH   6   7
ATOM      7  S   UNL     1     -33.560 -12.209  16.199  0.00  0.00    +0.061 S 
ATOM      8  O   UNL     1     -33.148 -13.331  17.113  0.00  0.00    -0.153 OA
ATOM      9  O   UNL     1     -35.062 -12.144  16.134  0.00  0.00    -0.153 OA
BRANCH   7  10
ATOM     10  N   UNL     1     -32.957 -10.692  16.825  0.00  0.00    -0.177 NA
ATOM     11  C   UNL     1     -33.060  -9.615  15.807  0.00  0.00    +0.109 C 
ATOM     12  C   UNL     1     -34.236  -8.659  16.057  0.00  0.00    +0.017 C 
ATOM     13  C   UNL     1     -34.131  -7.997  17.441  0.00  0.00    +0.003 C 
ATOM     14  C   UNL     1     -33.457  -8.906  18.485  0.00  0.00    +0.017 C 
ATOM     15  C   UNL     1     -33.615 -10.383  18.114  0.00  0.00    +0.109 C 
ENDBRANCH   7  10
ENDBRANCH   6   7
BRANCH   1  16
ATOM     16  C   UNL     1     -30.724 -13.487  15.561  0.00  0.00    +0.141 C 
BRANCH  16  19
ATOM     17  O   UNL     1     -29.527 -13.682  18.155  0.00  0.00    -0.270 OA
ATOM     18  C   UNL     1     -30.077 -12.587  17.856  0.00  0.00    +0.246 C 
ATOM     19  N   UNL     1     -30.625 -12.402  16.539  0.00  0.00    -0.307 N 
ATOM     20  H   UNL     1     -30.874 -11.440  16.214  0.00  0.00    +0.149 HD
BRANCH  18  21
ATOM     21  C   UNL     1     -30.123 -11.500  18.863  0.00  0.00    +0.055 A 
ATOM     22  C   UNL     1     -30.542 -11.769  20.178  0.00  0.00    +0.016 A 
ATOM     23  C   UNL     1     -30.587 -10.745  21.125  0.00  0.00    +0.020 A 
ATOM     24  C   UNL     1     -30.223  -9.452  20.752  0.00  0.00    +0.111 A 
ATOM     25  N   UNL     1     -29.832  -9.197  19.476  0.00  0.00    -0.263 NA
ATOM     26  C   UNL     1     -29.776 -10.177  18.534  0.00  0.00    +0.123 A 
ENDBRANCH  18  21
ENDBRANCH  16  19
ENDBRANCH   1  16
TORSDOF 5
ENDMDL
MODEL 5
REMARK VINA RESULT:    -4.132      2.022      4.797
REMARK INTER + INTRA:          -6.704
REMARK INTER:                  -5.679
REMARK INTRA:                  -1.025
REMARK UNBOUND:                -1.363
REMARK  Name = 
REMARK  5 active torsions:
REMARK  status: ('A' for Active; 'I' for Inactive)
REMARK    1  A    between atoms: C_2  and  C_20
REMARK    2  A    between atoms: N_3  and  C_4
REMARK    3  A    between atoms: C_4  and  C_5
REMARK    4  A    between atoms: C_10  and  S_11
REMARK    5  A    between atoms: S_11  and  N_14
REMARK                            x       y       z     vdW  Elec       q    Type
REMARK                         _______ _______ _______ _____ _____    ______ ____
ROOT
ATOM      1  C   UNL     1     -31.711 -10.964  19.669  0.00  0.00    -0.004 A 
ATOM      2  C   UNL     1     -32.237 -10.421  20.860  0.00  0.00    +0.007 A 
ATOM      3  C   UNL     1     -32.352  -9.041  21.028  0.00  0.00    +0.000 A 
ATOM      4  C   UNL     1     -31.932  -8.178  20.021  0.00  0.00    +0.002 A 
ATOM      5  C   UNL     1     -31.371  -8.689  18.851  0.00  0.00    +0.029 A 
ATOM      6  C   UNL     1     -31.224 -10.075  18.670  0.00  0.00    +0.110 A 
ENDROOT
BRANCH   6   7
ATOM      7  S   UNL     1     -30.436 -10.649  17.188  0.00  0.00    +0.061 S 
ATOM      8  O   UNL     1     -29.028 -11.057  17.524  0.00  0.00    -0.153 OA
ATOM      9  O   UNL     1     -30.407  -9.550  16.162  0.00  0.00    -0.153 OA
BRANCH   7  10
ATOM     10  N   UNL     1     -31.300 -12.016  16.524  0.00  0.00    -0.177 NA
ATOM     11  C   UNL     1     -32.433 -11.571  15.672  0.00  0.00    +0.109 C 
ATOM     12  C   UNL     1     -32.137 -11.684  14.169  0.00  0.00    +0.017 C 
ATOM     13  C   UNL     1     -31.787 -13.130  13.778  0.00  0.00    +0.003 C 
ATOM     14  C   UNL     1     -31.075 -13.895  14.907  0.00  0.00    +0.017 C 
ATOM     15  C   UNL     1     -30.351 -12.933  15.854  0.00  0.00    +0.109 C 
ENDBRANCH   7  10
ENDBRANCH   6   7
BRANCH   1  16
ATOM     16  C   UNL     1     -31.603 -12.471  19.513  0.00  0.00    +0.141 C 
BRANCH  16  19
ATOM     17  O   UNL     1     -29.928 -12.837  21.806  0.00  0.00    -0.270 OA
ATOM     18  C   UNL     1     -29.399 -13.008  20.674  0.00  0.00    +0.246 C 
ATOM     19  N   UNL     1     -30.209 -12.917  19.489  0.00  0.00    -0.307 N 
ATOM     20  H   UNL     1     -29.837 -13.275  18.580  0.00  0.00    +0.149 HD
BRANCH  18  21
ATOM     21  C   UNL     1     -27.954 -13.329  20.591  0.00  0.00    +0.055 A 
ATOM     22  C   UNL     1     -27.384 -14.268  21.468  0.00  0.00    +0.016 A 
ATOM     23  C   UNL     1     -26.023 -14.568  21.390  0.00  0.00    +0.020 A 
ATOM     24  C   UNL     1     -25.233 -13.918  20.442  0.00  0.00    +0.111 A 
ATOM     25  N   UNL     1     -25.789 -13.001  19.607  0.00  0.00    -0.263 NA
ATOM     26  C   UNL     1     -27.112 -12.693  19.659  0.00  0.00    +0.123 A 
ENDBRANCH  18  21
ENDBRANCH  16  19
ENDBRANCH   1  16
TORSDOF 5
ENDMDL
MODEL 6
REMARK VINA RESULT:    -4.032      2.904      4.759
REMARK INTER + INTRA:          -6.574
REMARK INTER:                  -4.794
REMARK INTRA:                  -1.780
REMARK UNBOUND:                -1.363
REMARK  Name = 
REMARK  5 active torsions:
REMARK  status: ('A' for Active; 'I' for Inactive)
REMARK    1  A    between atoms: C_2  and  C_20
REMARK    2  A    between atoms: N_3  and  C_4
REMARK    3  A    between atoms: C_4  and  C_5
REMARK    4  A    between atoms: C_10  and  S_11
REMARK    5  A    between atoms: S_11  and  N_14
REMARK                            x       y       z     vdW  Elec       q    Type
REMARK                         _______ _______ _______ _____ _____    ______ ____
ROOT
ATOM      1  C   UNL     1     -33.916 -11.012  15.686  0.00  0.00    -0.004 A 
ATOM      2  C   UNL     1     -34.691 -10.513  14.618  0.00  0.00    +0.007 A 
ATOM      3  C   UNL     1     -34.879  -9.140  14.450  0.00  0.00    +0.000 A 
ATOM      4  C   UNL     1     -34.312  -8.243  15.351  0.00  0.00    +0.002 A 
ATOM      5  C   UNL     1     -33.576  -8.715  16.438  0.00  0.00    +0.029 A 
ATOM      6  C   UNL     1     -33.394 -10.094  16.639  0.00  0.00    +0.110 A 
ENDROOT
BRANCH   6   7
ATOM      7  S   UNL     1     -32.508 -10.621  18.082  0.00  0.00    +0.061 S 
ATOM      8  O   UNL     1     -33.434 -11.444  18.936  0.00  0.00    -0.153 OA
ATOM      9  O   UNL     1     -32.038  -9.425  18.864  0.00  0.00    -0.153 OA
BRANCH   7  10
ATOM     10  N   UNL     1     -31.118 -11.581  17.632  0.00  0.00    -0.177 NA
ATOM     11  C   UNL     1     -30.024 -10.724  17.107  0.00  0.00    +0.109 C 
ATOM     12  C   UNL     1     -28.894 -10.499  18.123  0.00  0.00    +0.017 C 
ATOM     13  C   UNL     1     -28.278 -11.834  18.575  0.00  0.00    +0.003 C 
ATOM     14  C   UNL     1     -29.299 -12.986  18.586  0.00  0.00    +0.017 C 
ATOM     15  C   UNL     1     -30.726 -12.456  18.758  0.00  0.00    +0.109 C 
ENDBRANCH   7  10
ENDBRANCH   6   7
BRANCH   1  16
ATOM     16  C   UNL     1     -33.726 -12.511  15.839  0.00  0.00    +0.141 C 
BRANCH  16  19
ATOM     17  O   UNL     1     -32.778 -13.204  13.228  0.00  0.00    -0.270 OA
ATOM     18  C   UNL     1     -31.968 -13.330  14.186  0.00  0.00    +0.246 C 
ATOM     19  N   UNL     1     -32.360 -12.923  15.509  0.00  0.00    -0.307 N 
ATOM     20  H   UNL     1     -31.634 -12.812  16.252  0.00  0.00    +0.149 HD
BRANCH  18  21
ATOM     21  C   UNL     1     -30.614 -13.873  13.924  0.00  0.00    +0.055 A 
ATOM     22  C   UNL     1     -29.760 -14.197  14.992  0.00  0.00    +0.016 A 
ATOM     23  C   UNL     1     -28.484 -14.706  14.743  0.00  0.00    +0.020 A 
ATOM     24  C   UNL     1     -28.062 -14.879  13.426  0.00  0.00    +0.111 A 
ATOM     25  N   UNL     1     -28.888 -14.551  12.398  0.00  0.00    -0.263 NA
ATOM     26  C   UNL     1     -30.137 -14.056  12.612  0.00  0.00    +0.123 A 
ENDBRANCH  18  21
ENDBRANCH  16  19
ENDBRANCH   1  16
TORSDOF 5
ENDMDL
MODEL 7
REMARK VINA RESULT:    -3.981      2.026      5.731
REMARK INTER + INTRA:          -6.508
REMARK INTER:                  -5.263
REMARK INTRA:                  -1.245
REMARK UNBOUND:                -1.363
REMARK  Name = 
REMARK  5 active torsions:
REMARK  status: ('A' for Active; 'I' for Inactive)
REMARK    1  A    between atoms: C_2  and  C_20
REMARK    2  A    between atoms: N_3  and  C_4
REMARK    3  A    between atoms: C_4  and  C_5
REMARK    4  A    between atoms: C_10  and  S_11
REMARK    5  A    between atoms: S_11  and  N_14
REMARK                            x       y       z     vdW  Elec       q    Type
REMARK                         _______ _______ _______ _____ _____    ______ ____
ROOT
ATOM      1  C   UNL     1     -28.725 -11.791  19.048  0.00  0.00    -0.004 A 
ATOM      2  C   UNL     1     -27.445 -12.365  19.192  0.00  0.00    +0.007 A 
ATOM      3  C   UNL     1     -27.192 -13.311  20.185  0.00  0.00    +0.000 A 
ATOM      4  C   UNL     1     -28.204 -13.691  21.061  0.00  0.00    +0.002 A 
ATOM      5  C   UNL     1     -29.467 -13.109  20.964  0.00  0.00    +0.029 A 
ATOM      6  C   UNL     1     -29.737 -12.136  19.986  0.00  0.00    +0.110 A 
ENDROOT
BRANCH   6   7
ATOM      7  S   UNL     1     -31.345 -11.387  19.970  0.00  0.00    +0.061 S 
ATOM      8  O   UNL     1     -32.008 -11.651  21.294  0.00  0.00    -0.153 OA
ATOM      9  O   UNL     1     -32.179 -11.981  18.867  0.00  0.00    -0.153 OA
BRANCH   7  10
ATOM     10  N   UNL     1     -31.216  -9.663  19.712  0.00  0.00    -0.177 NA
ATOM     11  C   UNL     1     -32.511  -9.091  19.260  0.00  0.00    +0.109 C 
ATOM     12  C   UNL     1     -33.264  -8.349  20.374  0.00  0.00    +0.017 C 
ATOM     13  C   UNL     1     -32.415  -7.204  20.952  0.00  0.00    +0.003 C 
ATOM     14  C   UNL     1     -30.907  -7.507  20.917  0.00  0.00    +0.017 C 
ATOM     15  C   UNL     1     -30.647  -9.016  20.915  0.00  0.00    +0.109 C 
ENDBRANCH   7  10
ENDBRANCH   6   7
BRANCH   1  16
ATOM     16  C   UNL     1     -28.971 -10.767  17.954  0.00  0.00    +0.141 C 
BRANCH  16  19
ATOM     17  O   UNL     1     -30.285  -9.077  16.054  0.00  0.00    -0.270 OA
ATOM     18  C   UNL     1     -30.733 -10.248  16.187  0.00  0.00    +0.246 C 
ATOM     19  N   UNL     1     -30.065 -11.169  17.067  0.00  0.00    -0.307 N 
ATOM     20  H   UNL     1     -30.286 -12.189  17.013  0.00  0.00    +0.149 HD
BRANCH  18  21
ATOM     21  C   UNL     1     -31.926 -10.661  15.410  0.00  0.00    +0.055 A 
ATOM     22  C   UNL     1     -31.857 -11.759  14.536  0.00  0.00    +0.016 A 
ATOM     23  C   UNL     1     -32.980 -12.146  13.803  0.00  0.00    +0.020 A 
ATOM     24  C   UNL     1     -34.167 -11.427  13.939  0.00  0.00    +0.111 A 
ATOM     25  N   UNL     1     -34.221 -10.358  14.776  0.00  0.00    -0.263 NA
ATOM     26  C   UNL     1     -33.143  -9.962  15.504  0.00  0.00    +0.123 A 
ENDBRANCH  18  21
ENDBRANCH  16  19
ENDBRANCH   1  16
TORSDOF 5
ENDMDL
MODEL 8
REMARK VINA RESULT:    -3.965      2.560      4.932
REMARK INTER + INTRA:          -6.488
REMARK INTER:                  -4.659
REMARK INTRA:                  -1.829
REMARK UNBOUND:                -1.363
REMARK  Name = 
REMARK  5 active torsions:
REMARK  status: ('A' for Active; 'I' for Inactive)
REMARK    1  A    between atoms: C_2  and  C_20
REMARK    2  A    between atoms: N_3  and  C_4
REMARK    3  A    between atoms: C_4  and  C_5
REMARK    4  A    between atoms: C_10  and  S_11
REMARK    5  A    between atoms: S_11  and  N_14
REMARK                            x       y       z     vdW  Elec       q    Type
REMARK                         _______ _______ _______ _____ _____    ______ ____
ROOT
ATOM      1  C   UNL     1     -32.775 -12.455  15.406  0.00  0.00    -0.004 A 
ATOM      2  C   UNL     1     -33.241 -11.883  14.204  0.00  0.00    +0.007 A 
ATOM      3  C   UNL     1     -32.654 -12.210  12.981  0.00  0.00    +0.000 A 
ATOM      4  C   UNL     1     -31.584 -13.099  12.936  0.00  0.00    +0.002 A 
ATOM      5  C   UNL     1     -31.080 -13.646  14.115  0.00  0.00    +0.029 A 
ATOM      6  C   UNL     1     -31.640 -13.312  15.360  0.00  0.00    +0.110 A 
ENDROOT
BRANCH   6   7
ATOM      7  S   UNL     1     -30.900 -13.991  16.822  0.00  0.00    +0.061 S 
ATOM      8  O   UNL     1     -29.702 -14.805  16.416  0.00  0.00    -0.153 OA
ATOM      9  O   UNL     1     -31.886 -14.875  17.536  0.00  0.00    -0.153 OA
BRANCH   7  10
ATOM     10  N   UNL     1     -30.401 -12.714  17.906  0.00  0.00    -0.177 NA
ATOM     11  C   UNL     1     -30.030 -13.257  19.238  0.00  0.00    +0.109 C 
ATOM     12  C   UNL     1     -28.512 -13.335  19.457  0.00  0.00    +0.017 C 
ATOM     13  C   UNL     1     -27.857 -11.951  19.309  0.00  0.00    +0.003 C 
ATOM     14  C   UNL     1     -28.588 -11.054  18.295  0.00  0.00    +0.017 C 
ATOM     15  C   UNL     1     -29.350 -11.893  17.265  0.00  0.00    +0.109 C 
ENDBRANCH   7  10
ENDBRANCH   6   7
BRANCH   1  16
ATOM     16  C   UNL     1     -33.437 -12.084  16.721  0.00  0.00    +0.141 C 
BRANCH  16  19
ATOM     17  O   UNL     1     -33.254 -11.657  19.546  0.00  0.00    -0.270 OA
ATOM     18  C   UNL     1     -32.772 -10.764  18.797  0.00  0.00    +0.246 C 
ATOM     19  N   UNL     1     -32.763 -10.959  17.372  0.00  0.00    -0.307 N 
ATOM     20  H   UNL     1     -32.173 -10.341  16.770  0.00  0.00    +0.149 HD
BRANCH  18  21
ATOM     21  C   UNL     1     -32.199  -9.539  19.405  0.00  0.00    +0.055 A 
ATOM     22  C   UNL     1     -31.348  -9.633  20.520  0.00  0.00    +0.016 A 
ATOM     23  C   UNL     1     -30.810  -8.479  21.093  0.00  0.00    +0.020 A 
ATOM     24  C   UNL     1     -31.135  -7.234  20.556  0.00  0.00    +0.111 A 
ATOM     25  N   UNL     1     -31.969  -7.151  19.488  0.00  0.00    -0.263 NA
ATOM     26  C   UNL     1     -32.504  -8.259  18.908  0.00  0.00    +0.123 A 
ENDBRANCH  18  21
ENDBRANCH  16  19
ENDBRANCH   1  16
TORSDOF 5
ENDMDL
