REMARK  Name = 
REMARK  7 active torsions:
REMARK  status: ('A' for Active; 'I' for Inactive)
REMARK    1  A    between atoms: C_1  and  C_2
REMARK    2  A    between atoms: C_4  and  C_5
REMARK    3  A    between atoms: C_7  and  N_9
REMARK    4  A    between atoms: C_10  and  C_12
REMARK    5  A    between atoms: C_15  and  N_18
REMARK    6  A    between atoms: N_18  and  S_19
REMARK    7  A    between atoms: S_19  and  C_22
REMARK                            x       y       z     vdW  Elec       q    Type
REMARK                         _______ _______ _______ _____ _____    ______ ____
ROOT
ATOM      1  C   UNL     1      -0.067   1.195   0.424  0.00  0.00    +0.037 A 
ATOM      2  C   UNL     1       0.427   1.463   1.712  0.00  0.00    +0.015 A 
ATOM      3  C   UNL     1       1.762   1.835   1.896  0.00  0.00    +0.025 A 
ATOM      4  C   UNL     1       2.631   1.950   0.801  0.00  0.00    +0.048 A 
ATOM      5  C   UNL     1       2.132   1.704  -0.490  0.00  0.00    +0.025 A 
ATOM      6  C   UNL     1       0.798   1.333  -0.675  0.00  0.00    +0.015 A 
ENDROOT
BRANCH   1   8
ATOM      7  N   UNL     1      -2.219   0.072   1.198  0.00  0.00    -0.266 N 
ATOM      8  C   UNL     1      -1.480   0.803   0.201  0.00  0.00    +0.249 C 
ATOM      9  O   UNL     1      -2.037   1.126  -0.883  0.00  0.00    -0.270 OA
ATOM     10  H   UNL     1      -1.814  -0.048   2.152  0.00  0.00    +0.157 HD
BRANCH   7  17
ATOM     11  C   UNL     1      -5.675  -2.110  -1.677  0.00  0.00    +0.044 C 
ATOM     12  C   UNL     1      -5.243  -1.497  -0.378  0.00  0.00    -0.046 A 
ATOM     13  C   UNL     1      -6.106  -1.499   0.725  0.00  0.00    +0.026 A 
ATOM     14  C   UNL     1      -5.665  -0.979   1.947  0.00  0.00    +0.041 A 
ATOM     15  C   UNL     1      -6.572  -0.968   3.136  0.00  0.00    +0.065 C 
ATOM     16  N   UNL     1      -4.407  -0.472   2.051  0.00  0.00    -0.237 NA
ATOM     17  C   UNL     1      -3.544  -0.446   0.999  0.00  0.00    +0.126 A 
ATOM     18  C   UNL     1      -3.945  -0.989  -0.233  0.00  0.00    +0.047 A 
ENDBRANCH   7  17
ENDBRANCH   1   8
BRANCH   4  19
ATOM     19  N   UNL     1       4.001   2.327   1.030  0.00  0.00    -0.216 N 
ATOM     20  H   UNL     1       4.301   2.584   1.998  0.00  0.00    +0.174 HD
BRANCH  19  21
ATOM     21  S   UNL     1       5.239   2.273  -0.185  0.00  0.00    +0.072 S 
ATOM     22  O   UNL     1       6.568   2.577   0.447  0.00  0.00    -0.150 OA
ATOM     23  O   UNL     1       4.946   3.313  -1.231  0.00  0.00    -0.150 OA
BRANCH  21  24
ATOM     24  C   UNL     1       5.308   0.668  -0.905  0.00  0.00    +0.109 A 
ATOM     25  C   UNL     1       5.111  -0.467  -0.105  0.00  0.00    +0.031 A 
ATOM     26  C   UNL     1       5.153  -1.743  -0.675  0.00  0.00    +0.040 A 
ATOM     27  C   UNL     1       5.396  -1.892  -2.043  0.00  0.00    +0.124 A 
ATOM     28  F   UNL     1       5.437  -3.130  -2.594  0.00  0.00    -0.205 F 
ATOM     29  C   UNL     1       5.599  -0.764  -2.844  0.00  0.00    +0.040 A 
ATOM     30  C   UNL     1       5.557   0.514  -2.277  0.00  0.00    +0.031 A 
ENDBRANCH  21  24
ENDBRANCH  19  21
ENDBRANCH   4  19
TORSDOF 5
