REMARK  Name = 
REMARK  5 active torsions:
REMARK  status: ('A' for Active; 'I' for Inactive)
REMARK    1  A    between atoms: C_7  and  C_8
REMARK    2  A    between atoms: C_8  and  S_9
REMARK    3  A    between atoms: S_9  and  C_10
REMARK    4  A    between atoms: C_12  and  C_13
REMARK    5  A    between atoms: C_14  and  C_15
REMARK                            x       y       z     vdW  Elec       q    Type
REMARK                         _______ _______ _______ _____ _____    ______ ____
ROOT
ATOM      1  C   UNL     1      -0.004   0.353  -0.585  0.00  0.00    +0.185 A 
ATOM      2  N   UNL     1       0.582   1.452  -0.073  0.00  0.00    -0.202 NA
ATOM      3  C   UNL     1       1.827   1.002   0.194  0.00  0.00    +0.175 A 
ATOM      4  N   UNL     1       1.983  -0.304  -0.107  0.00  0.00    -0.152 NA
ATOM      5  N   UNL     1       0.828  -0.698  -0.608  0.00  0.00    -0.253 N 
ATOM      6  H   UNL     1       0.619  -1.664  -0.943  0.00  0.00    +0.191 HD
ENDROOT
BRANCH   3   7
ATOM      7  C   UNL     1       2.848   1.833   0.858  0.00  0.00    +0.051 C 
ATOM      8  C   UNL     1       4.170   1.616   0.823  0.00  0.00    +0.019 C 
BRANCH   8   9
ATOM      9  C   UNL     1       4.858   0.664  -0.068  0.00  0.00    +0.012 A 
ATOM     10  C   UNL     1       6.037   0.002   0.246  0.00  0.00    +0.015 A 
ATOM     11  C   UNL     1       6.566  -0.731  -0.824  0.00  0.00    +0.008 A 
ATOM     12  C   UNL     1       5.826  -0.624  -1.993  0.00  0.00    +0.046 A 
ATOM     13  S   UNL     1       4.517   0.388  -1.696  0.00  0.00    -0.097 S 
ENDBRANCH   8   9
ENDBRANCH   3   7
BRANCH   1  14
ATOM     14  S   UNL     1      -1.702   0.299  -1.147  0.00  0.00    -0.082 S 
BRANCH  14  15
ATOM     15  C   UNL     1      -2.346  -0.193   0.484  0.00  0.00    +0.115 C 
BRANCH  15  22
ATOM     16  F   UNL     1      -4.163   1.998   0.837  0.00  0.00    -0.205 F 
ATOM     17  C   UNL     1      -4.683   0.771   0.578  0.00  0.00    +0.127 A 
ATOM     18  C   UNL     1      -6.070   0.624   0.475  0.00  0.00    +0.038 A 
ATOM     19  C   UNL     1      -6.624  -0.627   0.194  0.00  0.00    +0.003 A 
ATOM     20  C   UNL     1      -5.793  -1.735   0.010  0.00  0.00    +0.000 A 
ATOM     21  C   UNL     1      -4.406  -1.595   0.112  0.00  0.00    +0.007 A 
ATOM     22  C   UNL     1      -3.840  -0.343   0.409  0.00  0.00    -0.002 A 
ENDBRANCH  15  22
ENDBRANCH  14  15
ENDBRANCH   1  14
TORSDOF 5
