REMARK  Name = 
REMARK  6 active torsions:
REMARK  status: ('A' for Active; 'I' for Inactive)
REMARK    1  A    between atoms: C_2  and  O_3
REMARK    2  A    between atoms: C_2  and  C_4
REMARK    3  A    between atoms: C_4  and  N_5
REMARK    4  A    between atoms: N_5  and  C_6
REMARK    5  A    between atoms: C_6  and  C_7
REMARK    6  A    between atoms: C_13  and  C_15
REMARK                            x       y       z     vdW  Elec       q    Type
REMARK                         _______ _______ _______ _____ _____    ______ ____
ROOT
ATOM      1  N   UNL     1      -0.446  -1.019  -1.300  0.00  0.00    -0.282 N 
ATOM      2  C   UNL     1      -1.778  -0.525  -1.499  0.00  0.00    +0.248 C 
ATOM      3  O   UNL     1      -2.414  -0.877  -2.530  0.00  0.00    -0.270 OA
ENDROOT
BRANCH   2   4
ATOM      4  C   UNL     1      -2.405   0.395  -0.526  0.00  0.00    +0.044 A 
ATOM      5  C   UNL     1      -1.817   0.760   0.697  0.00  0.00    +0.020 A 
ATOM      6  C   UNL     1      -2.596   1.623   1.455  0.00  0.00    +0.046 A 
ATOM      7  S   UNL     1      -4.012   1.931   0.605  0.00  0.00    -0.104 S 
ATOM      8  C   UNL     1      -3.655   0.977  -0.730  0.00  0.00    +0.058 A 
ENDBRANCH   2   4
BRANCH   1   9
ATOM      9  C   UNL     1      -0.260  -2.373  -0.765  0.00  0.00    +0.228 C 
BRANCH   9  11
ATOM     10  O   UNL     1      -1.702  -2.525   1.132  0.00  0.00    -0.249 OA
ATOM     11  C   UNL     1      -0.524  -2.394   0.705  0.00  0.00    +0.322 C 
BRANCH  11  12
ATOM     12  O   UNL     1       0.523  -2.215   1.601  0.00  0.00    -0.480 OA
ATOM     13  H   UNL     1       0.355  -2.197   2.600  0.00  0.00    +0.295 HD
ENDBRANCH  11  12
ENDBRANCH   9  11
ENDBRANCH   1   9
BRANCH   1  14
ATOM     14  C   UNL     1       0.680  -0.295  -1.901  0.00  0.00    +0.143 C 
BRANCH  14  15
ATOM     15  C   UNL     1       1.508   0.369  -0.835  0.00  0.00    -0.030 A 
ATOM     16  C   UNL     1       2.567  -0.323  -0.223  0.00  0.00    +0.005 A 
ATOM     17  C   UNL     1       3.309   0.283   0.795  0.00  0.00    +0.000 A 
ATOM     18  C   UNL     1       2.996   1.579   1.212  0.00  0.00    +0.000 A 
ATOM     19  C   UNL     1       1.939   2.271   0.615  0.00  0.00    +0.000 A 
ATOM     20  C   UNL     1       1.198   1.671  -0.406  0.00  0.00    +0.005 A 
ENDBRANCH  14  15
ENDBRANCH   1  14
TORSDOF 6
