REMARK  Name = 
REMARK  7 active torsions:
REMARK  status: ('A' for Active; 'I' for Inactive)
REMARK    1  A    between atoms: C_1  and  C_2
REMARK    2  A    between atoms: C_6  and  C_7
REMARK    3  A    between atoms: N_9  and  C_10
REMARK    4  A    between atoms: C_10  and  C_11
REMARK    5  A    between atoms: C_10  and  C_15
REMARK    6  A    between atoms: C_11  and  C_12
REMARK    7  A    between atoms: C_12  and  O_14
REMARK                            x       y       z     vdW  Elec       q    Type
REMARK                         _______ _______ _______ _____ _____    ______ ____
ROOT
ATOM      1  C   UNL     1       1.129   0.224   0.346  0.00  0.00    +0.121 C 
ENDROOT
BRANCH   1   2
ATOM      2  C   UNL     1       2.101  -0.929   0.330  0.00  0.00    +0.011 A 
ATOM      3  C   UNL     1       2.901  -1.329   1.394  0.00  0.00    +0.013 A 
ATOM      4  C   UNL     1       3.729  -2.415   1.087  0.00  0.00    +0.008 A 
ATOM      5  C   UNL     1       3.589  -2.873  -0.216  0.00  0.00    +0.045 A 
ATOM      6  S   UNL     1       2.435  -1.924  -0.988  0.00  0.00    -0.100 S 
ENDBRANCH   1   2
BRANCH   1   9
ATOM      7  C   UNL     1      -1.403   0.327   0.560  0.00  0.00    +0.245 C 
ATOM      8  O   UNL     1      -1.310   1.321   1.330  0.00  0.00    -0.270 OA
ATOM      9  N   UNL     1      -0.212  -0.256   0.004  0.00  0.00    -0.303 N 
ATOM     10  H   UNL     1      -0.310  -0.916  -0.799  0.00  0.00    +0.150 HD
BRANCH   7  16
ATOM     11  C   UNL     1      -4.085   1.909   0.759  0.00  0.00    +0.045 C 
ATOM     12  C   UNL     1      -3.960   0.473   0.341  0.00  0.00    -0.031 A 
ATOM     13  C   UNL     1      -5.073  -0.294   0.010  0.00  0.00    +0.049 A 
ATOM     14  S   UNL     1      -4.549  -1.831  -0.410  0.00  0.00    -0.104 S 
ATOM     15  C   UNL     1      -2.910  -1.554  -0.179  0.00  0.00    +0.058 A 
ATOM     16  C   UNL     1      -2.737  -0.235   0.240  0.00  0.00    +0.047 A 
ENDBRANCH   7  16
ENDBRANCH   1   9
BRANCH   1  17
ATOM     17  C   UNL     1       1.552   1.327  -0.638  0.00  0.00    +0.148 C 
BRANCH  17  18
ATOM     18  C   UNL     1       2.863   1.939  -0.249  0.00  0.00    +0.307 C 
ATOM     19  O   UNL     1       2.900   2.857   0.614  0.00  0.00    -0.251 OA
BRANCH  18  20
ATOM     20  O   UNL     1       4.044   1.463  -0.809  0.00  0.00    -0.481 OA
ATOM     21  H   UNL     1       4.940   1.853  -0.543  0.00  0.00    +0.295 HD
ENDBRANCH  18  20
ENDBRANCH  17  18
ENDBRANCH   1  17
TORSDOF 6
