REMARK  Name = 
REMARK  4 active torsions:
REMARK  status: ('A' for Active; 'I' for Inactive)
REMARK    1  A    between atoms: C_1  and  C_2
REMARK    2  A    between atoms: C_4  and  C_14
REMARK    3  A    between atoms: C_6  and  C_7
REMARK    4  A    between atoms: C_18  and  C_20
REMARK                            x       y       z     vdW  Elec       q    Type
REMARK                         _______ _______ _______ _____ _____    ______ ____
ROOT
ATOM      1  C   UNL     1      -2.360  -0.547   2.748  0.00  0.00    +0.054 C 
ATOM      2  C   UNL     1      -1.370  -0.338   1.647  0.00  0.00    +0.015 A 
ATOM      3  S   UNL     1       0.295  -0.465   1.842  0.00  0.00    -0.072 S 
ATOM      4  C   UNL     1       0.635  -0.054   0.243  0.00  0.00    +0.109 A 
ATOM      5  N   UNL     1      -0.507   0.175  -0.446  0.00  0.00    -0.239 NA
ATOM      6  C   UNL     1      -1.626   0.008   0.313  0.00  0.00    +0.082 A 
ENDROOT
BRANCH   6   7
ATOM      7  C   UNL     1      -2.969   0.217  -0.269  0.00  0.00    +0.001 A 
ATOM      8  C   UNL     1      -4.028  -0.668   0.002  0.00  0.00    +0.011 A 
ATOM      9  C   UNL     1      -5.285  -0.463  -0.574  0.00  0.00    +0.020 A 
ATOM     10  C   UNL     1      -5.495   0.618  -1.435  0.00  0.00    +0.041 A 
ATOM     11 CL   UNL     1      -7.073   0.872  -2.158  0.00  0.00    -0.084 Cl
ATOM     12  C   UNL     1      -4.442   1.490  -1.727  0.00  0.00    +0.020 A 
ATOM     13  C   UNL     1      -3.183   1.288  -1.153  0.00  0.00    +0.011 A 
ENDBRANCH   6   7
BRANCH   4  14
ATOM     14  C   UNL     1       1.986   0.054  -0.357  0.00  0.00    +0.008 A 
ATOM     15  C   UNL     1       2.126   0.404  -1.710  0.00  0.00    +0.010 A 
ATOM     16  C   UNL     1       3.393   0.520  -2.283  0.00  0.00    +0.001 A 
ATOM     17  C   UNL     1       4.535   0.282  -1.517  0.00  0.00    +0.013 A 
ATOM     18  C   UNL     1       4.423  -0.084  -0.164  0.00  0.00    +0.037 A 
ATOM     19  C   UNL     1       3.142  -0.185   0.410  0.00  0.00    +0.023 A 
BRANCH  18  20
ATOM     20  C   UNL     1       5.647  -0.331   0.637  0.00  0.00    +0.242 C 
ATOM     21  N   UNL     1       5.619  -1.149   1.810  0.00  0.00    -0.325 N 
ATOM     22  O   UNL     1       6.742   0.176   0.275  0.00  0.00    -0.270 OA
ATOM     23  H   UNL     1       6.482  -1.257   2.389  0.00  0.00    +0.145 HD
ATOM     24  H   UNL     1       4.784  -1.720   2.063  0.00  0.00    +0.145 HD
ENDBRANCH  18  20
ENDBRANCH   4  14
TORSDOF 3
