REMARK  Name = 
REMARK  7 active torsions:
REMARK  status: ('A' for Active; 'I' for Inactive)
REMARK    1  A    between atoms: C_1  and  C_2
REMARK    2  A    between atoms: C_9  and  S_13
REMARK    3  A    between atoms: S_13  and  N_16
REMARK    4  A    between atoms: N_16  and  C_17
REMARK    5  A    between atoms: C_17  and  C_18
REMARK    6  A    between atoms: C_18  and  C_19
REMARK    7  A    between atoms: C_18  and  C_20
REMARK                            x       y       z     vdW  Elec       q    Type
REMARK                         _______ _______ _______ _____ _____    ______ ____
ROOT
ATOM      1  S   UNL     1       0.077  -0.852   2.882  0.00  0.00    +0.058 S 
ATOM      2  O   UNL     1      -0.488  -0.797   4.273  0.00  0.00    -0.153 OA
ATOM      3  O   UNL     1       0.583  -2.243   2.608  0.00  0.00    -0.153 OA
ENDROOT
BRANCH   1  12
ATOM      4  C   UNL     1      -6.080   1.527  -2.365  0.00  0.00    +0.109 C 
ATOM      5  C   UNL     1      -4.753   1.510  -1.670  0.00  0.00    +0.217 C 
ATOM      6  O   UNL     1      -4.023   2.534  -1.729  0.00  0.00    -0.276 OA
ATOM      7  N   UNL     1      -4.300   0.327  -0.987  0.00  0.00    -0.271 N 
ATOM      8  C   UNL     1      -4.867  -1.009  -1.199  0.00  0.00    +0.118 C 
ATOM      9  C   UNL     1      -3.998  -1.984  -0.372  0.00  0.00    +0.056 C 
ATOM     10  C   UNL     1      -3.006  -1.091   0.284  0.00  0.00    -0.023 A 
ATOM     11  C   UNL     1      -2.005  -1.450   1.189  0.00  0.00    +0.034 A 
ATOM     12  C   UNL     1      -1.191  -0.440   1.732  0.00  0.00    +0.106 A 
ATOM     13  C   UNL     1      -1.413   0.906   1.373  0.00  0.00    +0.030 A 
ATOM     14  C   UNL     1      -2.427   1.242   0.461  0.00  0.00    +0.026 A 
ATOM     15  C   UNL     1      -3.206   0.212  -0.085  0.00  0.00    +0.040 A 
ENDBRANCH   1  12
BRANCH   1  16
ATOM     16  N   UNL     1       1.401   0.271   2.756  0.00  0.00    -0.189 NA
ATOM     17  H   UNL     1       2.103   0.005   3.484  0.00  0.00    +0.148 HD
BRANCH  16  18
ATOM     18  C   UNL     1       1.984   0.265   1.400  0.00  0.00    +0.113 C 
BRANCH  18  19
ATOM     19  C   UNL     1       3.501  -0.041   1.401  0.00  0.00    +0.031 C 
ATOM     20  C   UNL     1       3.784  -1.517   1.724  0.00  0.00    +0.014 C 
BRANCH  19  21
ATOM     21  C   UNL     1       4.123   0.338   0.068  0.00  0.00    -0.043 A 
ATOM     22  C   UNL     1       3.723  -0.292  -1.127  0.00  0.00    +0.004 A 
ATOM     23  C   UNL     1       4.306   0.066  -2.346  0.00  0.00    +0.000 A 
ATOM     24  C   UNL     1       5.290   1.056  -2.388  0.00  0.00    +0.000 A 
ATOM     25  C   UNL     1       5.692   1.692  -1.210  0.00  0.00    +0.000 A 
ATOM     26  C   UNL     1       5.112   1.337   0.011  0.00  0.00    +0.004 A 
ENDBRANCH  19  21
ENDBRANCH  18  19
ENDBRANCH  16  18
ENDBRANCH   1  16
TORSDOF 5
