REMARK  Name = 
REMARK  4 active torsions:
REMARK  status: ('A' for Active; 'I' for Inactive)
REMARK    1  A    between atoms: N_1  and  S_2
REMARK    2  A    between atoms: S_2  and  C_5
REMARK    3  A    between atoms: C_8  and  C_11
REMARK    4  A    between atoms: N_13  and  C_14
REMARK                            x       y       z     vdW  Elec       q    Type
REMARK                         _______ _______ _______ _____ _____    ______ ____
ROOT
ATOM      1  C   UNL     1      -0.122  -0.724   1.524  0.00  0.00    +0.245 C 
ATOM      2  O   UNL     1      -0.416  -0.454   2.721  0.00  0.00    -0.270 OA
ATOM      3  N   UNL     1      -1.132  -1.245   0.644  0.00  0.00    -0.301 N 
ATOM      4  H   UNL     1      -0.851  -1.615  -0.292  0.00  0.00    +0.150 HD
ENDROOT
BRANCH   3   5
ATOM      5  C   UNL     1      -2.562  -1.116   0.935  0.00  0.00    +0.144 C 
ATOM      6  C   UNL     1      -3.369  -2.319   0.369  0.00  0.00    +0.256 C 
ATOM      7  O   UNL     1      -4.240  -1.772  -0.621  0.00  0.00    -0.489 OA
ATOM      8  C   UNL     1      -4.082  -0.406  -0.692  0.00  0.00    +0.126 A 
ATOM      9  C   UNL     1      -4.772   0.470  -1.530  0.00  0.00    +0.046 A 
ATOM     10  C   UNL     1      -4.468   1.840  -1.452  0.00  0.00    +0.004 A 
ATOM     11  C   UNL     1      -3.491   2.300  -0.547  0.00  0.00    +0.001 A 
ATOM     12  C   UNL     1      -2.813   1.392   0.284  0.00  0.00    +0.009 A 
ATOM     13  C   UNL     1      -3.133   0.036   0.185  0.00  0.00    +0.018 A 
ENDBRANCH   3   5
BRANCH   1  17
ATOM     14  C   UNL     1       3.917  -0.101   0.189  0.00  0.00    +0.105 A 
ATOM     15  C   UNL     1       3.646  -0.330   1.543  0.00  0.00    +0.029 A 
ATOM     16  C   UNL     1       2.332  -0.534   1.974  0.00  0.00    +0.015 A 
ATOM     17  C   UNL     1       1.268  -0.515   1.054  0.00  0.00    +0.037 A 
ATOM     18  C   UNL     1       1.546  -0.263  -0.302  0.00  0.00    +0.015 A 
ATOM     19  C   UNL     1       2.861  -0.058  -0.729  0.00  0.00    +0.029 A 
BRANCH  14  20
ATOM     20  S   UNL     1       5.571   0.176  -0.349  0.00  0.00    +0.056 S 
ATOM     21  O   UNL     1       5.734  -0.309  -1.762  0.00  0.00    -0.153 OA
ATOM     22  O   UNL     1       6.526  -0.580   0.532  0.00  0.00    -0.153 OA
BRANCH  20  23
ATOM     23  N   UNL     1       5.931   1.865  -0.275  0.00  0.00    -0.204 NA
ATOM     24  H   UNL     1       5.221   2.354  -0.864  0.00  0.00    +0.144 HD
ATOM     25  H   UNL     1       5.765   2.168   0.711  0.00  0.00    +0.144 HD
ENDBRANCH  20  23
ENDBRANCH  14  20
ENDBRANCH   1  17
TORSDOF 4
