REMARK  Name = 
REMARK  6 active torsions:
REMARK  status: ('A' for Active; 'I' for Inactive)
REMARK    1  A    between atoms: C_2  and  O_3
REMARK    2  A    between atoms: C_2  and  C_4
REMARK    3  A    between atoms: C_4  and  C_5
REMARK    4  A    between atoms: C_5  and  N_6
REMARK    5  A    between atoms: C_5  and  C_18
REMARK    6  A    between atoms: C_7  and  C_9
REMARK                            x       y       z     vdW  Elec       q    Type
REMARK                         _______ _______ _______ _____ _____    ______ ____
ROOT
ATOM      1  N   UNL     1       0.579  -0.141  -0.337  0.00  0.00    -0.303 N 
ATOM      2  C   UNL     1      -0.274  -1.284  -0.492  0.00  0.00    +0.248 C 
ATOM      3  O   UNL     1       0.168  -2.330  -1.040  0.00  0.00    -0.270 OA
ATOM      4  H   UNL     1       0.311   0.590   0.361  0.00  0.00    +0.150 HD
ENDROOT
BRANCH   2   5
ATOM      5  C   UNL     1      -1.652  -1.277   0.028  0.00  0.00    +0.082 A 
ATOM      6  C   UNL     1      -2.361  -2.388   0.478  0.00  0.00    +0.209 A 
ATOM      7  O   UNL     1      -3.565  -2.027   0.880  0.00  0.00    -0.462 OA
ATOM      8  C   UNL     1      -3.677  -0.733   0.702  0.00  0.00    +0.136 A 
ATOM      9  C   UNL     1      -4.787   0.064   0.972  0.00  0.00    +0.047 A 
ATOM     10  C   UNL     1      -4.703   1.434   0.666  0.00  0.00    +0.004 A 
ATOM     11  C   UNL     1      -3.528   1.968   0.092  0.00  0.00    +0.001 A 
ATOM     12  C   UNL     1      -2.422   1.139  -0.169  0.00  0.00    +0.012 A 
ATOM     13  C   UNL     1      -2.523  -0.213   0.171  0.00  0.00    +0.032 A 
ENDBRANCH   2   5
BRANCH   1  14
ATOM     14  C   UNL     1       1.913  -0.081  -0.942  0.00  0.00    +0.121 C 
BRANCH  14  15
ATOM     15  C   UNL     1       2.882  -0.879  -0.117  0.00  0.00    +0.011 A 
ATOM     16  C   UNL     1       3.054  -0.795   1.261  0.00  0.00    +0.013 A 
ATOM     17  C   UNL     1       4.065  -1.635   1.742  0.00  0.00    +0.008 A 
ATOM     18  C   UNL     1       4.697  -2.373   0.750  0.00  0.00    +0.045 A 
ATOM     19  S   UNL     1       3.998  -1.978  -0.728  0.00  0.00    -0.100 S 
ENDBRANCH  14  15
BRANCH  14  20
ATOM     20  C   UNL     1       2.398   1.373  -1.063  0.00  0.00    +0.148 C 
BRANCH  20  22
ATOM     21  O   UNL     1       1.548   2.011  -3.207  0.00  0.00    -0.251 OA
ATOM     22  C   UNL     1       1.502   2.174  -1.958  0.00  0.00    +0.307 C 
BRANCH  22  23
ATOM     23  O   UNL     1       0.603   3.082  -1.407  0.00  0.00    -0.481 OA
ATOM     24  H   UNL     1      -0.019   3.620  -1.998  0.00  0.00    +0.295 HD
ENDBRANCH  22  23
ENDBRANCH  20  22
ENDBRANCH  14  20
ENDBRANCH   1  14
TORSDOF 6
