REMARK  Name = 
REMARK  8 active torsions:
REMARK  status: ('A' for Active; 'I' for Inactive)
REMARK    1  A    between atoms: C_1  and  C_2
REMARK    2  A    between atoms: C_2  and  C_3
REMARK    3  A    between atoms: C_6  and  C_8
REMARK    4  A    between atoms: C_8  and  C_9
REMARK    5  A    between atoms: C_8  and  N_10
REMARK    6  A    between atoms: N_10  and  C_11
REMARK    7  A    between atoms: C_11  and  C_12
REMARK    8  A    between atoms: C_15  and  C_16
REMARK                            x       y       z     vdW  Elec       q    Type
REMARK                         _______ _______ _______ _____ _____    ______ ____
ROOT
ATOM      1  C   UNL     1       0.276   0.987   0.725  0.00  0.00    +0.107 C 
ATOM      2  C   UNL     1      -0.046   1.811   1.981  0.00  0.00    +0.031 C 
ENDROOT
BRANCH   1   6
ATOM      3  C   UNL     1      -2.908  -1.177  -0.068  0.00  0.00    +0.009 A 
ATOM      4  C   UNL     1      -1.885  -1.976   0.431  0.00  0.00    +0.122 A 
ATOM      5  N   UNL     1      -0.735  -1.312   0.720  0.00  0.00    -0.250 NA
ATOM      6  C   UNL     1      -0.832   0.011   0.458  0.00  0.00    +0.095 A 
ATOM      7  S   UNL     1      -2.363   0.414  -0.124  0.00  0.00    -0.076 S 
BRANCH   3   9
ATOM      8  C   UNL     1      -5.186  -1.577   0.840  0.00  0.00    +0.009 C 
ATOM      9  C   UNL     1      -4.296  -1.629  -0.396  0.00  0.00    +0.040 C 
ENDBRANCH   3   9
ENDBRANCH   1   6
BRANCH   1  10
ATOM     10  N   UNL     1       0.466   1.843  -0.463  0.00  0.00    -0.300 NA
ATOM     11  H   UNL     1      -0.181   2.665  -0.419  0.00  0.00    +0.123 HD
BRANCH  10  12
ATOM     12  C   UNL     1       1.844   2.335  -0.592  0.00  0.00    +0.180 C 
BRANCH  12  13
ATOM     13  C   UNL     1       2.715   1.277  -1.188  0.00  0.00    +0.231 A 
ATOM     14  N   UNL     1       2.665   0.894  -2.478  0.00  0.00    -0.111 NA
ATOM     15  N   UNL     1       3.560  -0.072  -2.613  0.00  0.00    -0.113 NA
ATOM     16  C   UNL     1       4.120  -0.238  -1.399  0.00  0.00    +0.214 A 
ATOM     17  C   UNL     1       5.167  -1.252  -1.093  0.00  0.00    +0.111 C 
ATOM     18  O   UNL     1       3.602   0.582  -0.517  0.00  0.00    -0.424 OA
ENDBRANCH  12  13
ENDBRANCH  10  12
ENDBRANCH   1  10
TORSDOF 5
