REMARK  Name = 
REMARK  2 active torsions:
REMARK  status: ('A' for Active; 'I' for Inactive)
REMARK    1  A    between atoms: C_7  and  S_9
REMARK    2  A    between atoms: S_9  and  C_10
REMARK                            x       y       z     vdW  Elec       q    Type
REMARK                         _______ _______ _______ _____ _____    ______ ____
ROOT
ATOM      1  C   UNL     1      -0.905  -0.646  -1.031  0.00  0.00    +0.114 A 
ATOM      2  N   UNL     1      -1.081  -1.961  -0.710  0.00  0.00    -0.228 NA
ATOM      3  C   UNL     1      -2.063  -2.361   0.159  0.00  0.00    +0.224 A 
ATOM      4  N   UNL     1      -2.900  -1.443   0.728  0.00  0.00    -0.218 NA
ATOM      5  C   UNL     1      -2.732  -0.137   0.410  0.00  0.00    +0.142 A 
ATOM      6  N   UNL     1      -3.467   0.890   0.861  0.00  0.00    -0.346 N 
ATOM      7  C   UNL     1      -2.950   1.990   0.264  0.00  0.00    +0.085 A 
ATOM      8  C   UNL     1      -1.885   1.651  -0.567  0.00  0.00    +0.031 A 
ATOM      9  C   UNL     1      -1.765   0.282  -0.452  0.00  0.00    +0.051 A 
ATOM     10  H   UNL     1      -4.271   0.852   1.526  0.00  0.00    +0.167 HD
ENDROOT
BRANCH   1  11
ATOM     11  S   UNL     1       0.397  -0.158  -2.161  0.00  0.00    -0.066 S 
BRANCH  11  18
ATOM     12  F   UNL     1       3.940  -2.393   0.839  0.00  0.00    -0.205 F 
ATOM     13  C   UNL     1       3.284  -1.256   0.499  0.00  0.00    +0.125 A 
ATOM     14  C   UNL     1       3.571  -0.059   1.163  0.00  0.00    +0.041 A 
ATOM     15  C   UNL     1       2.897   1.114   0.811  0.00  0.00    +0.042 A 
ATOM     16  C   UNL     1       1.932   1.093  -0.202  0.00  0.00    +0.137 A 
ATOM     17  F   UNL     1       1.296   2.241  -0.542  0.00  0.00    -0.204 F 
ATOM     18  C   UNL     1       1.636  -0.109  -0.863  0.00  0.00    +0.052 A 
ATOM     19  C   UNL     1       2.321  -1.281  -0.514  0.00  0.00    +0.056 A 
ENDBRANCH  11  18
ENDBRANCH   1  11
TORSDOF 2
