REMARK  Name = 
REMARK  3 active torsions:
REMARK  status: ('A' for Active; 'I' for Inactive)
REMARK    1  A    between atoms: C_2  and  O_3
REMARK    2  A    between atoms: C_2  and  C_4
REMARK    3  A    between atoms: C_9  and  C_10
REMARK                            x       y       z     vdW  Elec       q    Type
REMARK                         _______ _______ _______ _____ _____    ______ ____
ROOT
ATOM      1  C   UNL     1      -2.438   0.735   0.049  0.00  0.00    +0.073 A 
ATOM      2  C   UNL     1      -1.274   1.414   0.452  0.00  0.00    -0.007 A 
ATOM      3  C   UNL     1      -1.154   2.798   1.014  0.00  0.00    +0.043 C 
ATOM      4  C   UNL     1       0.368   3.040   1.148  0.00  0.00    +0.042 C 
ATOM      5  C   UNL     1       1.006   1.759   0.705  0.00  0.00    -0.021 C 
ATOM      6  C   UNL     1       2.331   1.553   0.688  0.00  0.00    +0.015 C 
ATOM      7  C   UNL     1      -0.041   0.846   0.282  0.00  0.00    +0.072 A 
ATOM      8  N   UNL     1       0.115  -0.377  -0.279  0.00  0.00    -0.247 NA
ATOM      9  C   UNL     1      -0.970  -1.101  -0.663  0.00  0.00    +0.072 A 
ATOM     10  C   UNL     1      -0.784  -2.375  -1.209  0.00  0.00    +0.028 A 
ATOM     11  C   UNL     1      -1.885  -3.146  -1.583  0.00  0.00    +0.002 A 
ATOM     12  C   UNL     1      -3.179  -2.654  -1.405  0.00  0.00    +0.001 A 
ATOM     13  C   UNL     1      -3.383  -1.381  -0.864  0.00  0.00    +0.011 A 
ATOM     14  C   UNL     1      -2.285  -0.572  -0.501  0.00  0.00    +0.015 A 
ENDROOT
BRANCH   6  15
ATOM     15  C   UNL     1       2.950   0.284   0.261  0.00  0.00    -0.005 A 
ATOM     16  C   UNL     1       3.691   0.266  -0.929  0.00  0.00    +0.009 A 
ATOM     17  C   UNL     1       4.278  -0.919  -1.376  0.00  0.00    +0.002 A 
ATOM     18  C   UNL     1       4.140  -2.092  -0.632  0.00  0.00    +0.021 A 
ATOM     19  C   UNL     1       3.425  -2.086   0.570  0.00  0.00    +0.060 A 
ATOM     20 CL   UNL     1       3.288  -3.586   1.478  0.00  0.00    -0.082 Cl
ATOM     21  C   UNL     1       2.835  -0.894   1.031  0.00  0.00    +0.066 A 
ATOM     22 CL   UNL     1       1.976  -0.879   2.574  0.00  0.00    -0.081 Cl
ENDBRANCH   6  15
BRANCH   1  24
ATOM     23  O   UNL     1      -4.574   1.378  -0.783  0.00  0.00    -0.245 OA
ATOM     24  C   UNL     1      -3.753   1.405   0.172  0.00  0.00    +0.338 C 
BRANCH  24  25
ATOM     25  O   UNL     1      -4.073   2.105   1.331  0.00  0.00    -0.477 OA
ATOM     26  H   UNL     1      -4.963   2.581   1.422  0.00  0.00    +0.295 HD
ENDBRANCH  24  25
ENDBRANCH   1  24
TORSDOF 3
