REMARK  Name = 
REMARK  4 active torsions:
REMARK  status: ('A' for Active; 'I' for Inactive)
REMARK    1  A    between atoms: C_1  and  C_2
REMARK    2  A    between atoms: C_5  and  S_8
REMARK    3  A    between atoms: S_8  and  N_11
REMARK    4  A    between atoms: C_15  and  C_17
REMARK                            x       y       z     vdW  Elec       q    Type
REMARK                         _______ _______ _______ _____ _____    ______ ____
ROOT
ATOM      1  N   UNL     1      -0.190   1.014  -2.553  0.00  0.00    -0.192 N 
ATOM      2  C   UNL     1       0.747   0.673  -1.530  0.00  0.00    +0.201 A 
ATOM      3  N   UNL     1       0.671   1.122  -0.259  0.00  0.00    -0.124 NA
ATOM      4  N   UNL     1       1.651   0.660   0.515  0.00  0.00    -0.138 NA
ATOM      5  C   UNL     1       2.513  -0.158  -0.132  0.00  0.00    +0.152 A 
ATOM      6  S   UNL     1       2.068  -0.343  -1.753  0.00  0.00    -0.028 S 
ATOM      7  H   UNL     1      -0.065   0.630  -3.515  0.00  0.00    +0.176 HD
ENDROOT
BRANCH   5   8
ATOM      8  C   UNL     1       3.672  -0.786   0.526  0.00  0.00    +0.098 A 
ATOM      9  C   UNL     1       4.548  -1.632  -0.175  0.00  0.00    +0.030 A 
ATOM     10  C   UNL     1       5.633  -2.204   0.493  0.00  0.00    +0.004 A 
ATOM     11  C   UNL     1       5.838  -1.931   1.846  0.00  0.00    +0.020 A 
ATOM     12  C   UNL     1       4.950  -1.087   2.514  0.00  0.00    +0.111 A 
ATOM     13  N   UNL     1       3.899  -0.539   1.847  0.00  0.00    -0.253 NA
ENDBRANCH   5   8
BRANCH   1  14
ATOM     14  S   UNL     1      -1.558   2.025  -2.227  0.00  0.00    +0.074 S 
ATOM     15  O   UNL     1      -2.389   2.157  -3.472  0.00  0.00    -0.150 OA
ATOM     16  O   UNL     1      -1.071   3.386  -1.814  0.00  0.00    -0.150 OA
BRANCH  14  21
ATOM     17  C   UNL     1      -4.904  -0.468   2.182  0.00  0.00    +0.044 C 
ATOM     18  C   UNL     1      -4.108   0.152   1.073  0.00  0.00    -0.050 A 
ATOM     19  C   UNL     1      -3.483  -0.657   0.112  0.00  0.00    +0.005 A 
ATOM     20  C   UNL     1      -2.711  -0.081  -0.900  0.00  0.00    +0.029 A 
ATOM     21  C   UNL     1      -2.541   1.309  -0.954  0.00  0.00    +0.109 A 
ATOM     22  C   UNL     1      -3.154   2.119   0.012  0.00  0.00    +0.029 A 
ATOM     23  C   UNL     1      -3.927   1.543   1.024  0.00  0.00    +0.005 A 
ENDBRANCH  14  21
ENDBRANCH   1  14
TORSDOF 3
