REMARK  Name = 
REMARK  5 active torsions:
REMARK  status: ('A' for Active; 'I' for Inactive)
REMARK    1  A    between atoms: C_1  and  C_2
REMARK    2  A    between atoms: C_2  and  C_3
REMARK    3  A    between atoms: C_2  and  S_16
REMARK    4  A    between atoms: N_5  and  C_6
REMARK    5  A    between atoms: S_16  and  C_19
REMARK                            x       y       z     vdW  Elec       q    Type
REMARK                         _______ _______ _______ _____ _____    ______ ____
ROOT
ATOM      1  C   UNL     1       0.177   0.944  -0.220  0.00  0.00    +0.242 C 
ATOM      2  O   UNL     1      -0.328   1.494   0.798  0.00  0.00    -0.273 OA
ATOM      3  N   UNL     1      -0.668   0.446  -1.269  0.00  0.00    -0.284 N 
ATOM      4  H   UNL     1      -0.243   0.300  -2.213  0.00  0.00    +0.155 HD
ENDROOT
BRANCH   3   5
ATOM      5  C   UNL     1      -2.083   0.233  -1.127  0.00  0.00    +0.037 A 
ATOM      6  C   UNL     1      -2.918   0.391  -2.246  0.00  0.00    +0.027 A 
ATOM      7  C   UNL     1      -4.297   0.176  -2.140  0.00  0.00    +0.051 A 
ATOM      8  C   UNL     1      -4.847  -0.214  -0.917  0.00  0.00    +0.162 A 
ATOM      9  O   UNL     1      -6.226  -0.406  -0.780  0.00  0.00    -0.485 OA
ATOM     10  C   UNL     1      -6.827  -0.542   0.510  0.00  0.00    +0.270 C 
ATOM     11  C   UNL     1      -5.923  -1.369   1.433  0.00  0.00    +0.270 C 
ATOM     12  O   UNL     1      -4.583  -0.870   1.390  0.00  0.00    -0.485 OA
ATOM     13  C   UNL     1      -4.017  -0.424   0.191  0.00  0.00    +0.164 A 
ATOM     14  C   UNL     1      -2.641  -0.194   0.093  0.00  0.00    +0.072 A 
ENDBRANCH   3   5
BRANCH   1  16
ATOM     15  C   UNL     1       2.306   2.244  -0.356  0.00  0.00    +0.042 C 
ATOM     16  C   UNL     1       1.673   0.851  -0.349  0.00  0.00    +0.218 C 
BRANCH  16  17
ATOM     17  S   UNL     1       2.346  -0.149   0.977  0.00  0.00    +0.011 S 
ATOM     18  O   UNL     1       1.662  -1.488   1.000  0.00  0.00    -0.169 OA
ATOM     19  O   UNL     1       2.110   0.530   2.298  0.00  0.00    -0.169 OA
BRANCH  17  20
ATOM     20  C   UNL     1       4.075  -0.385   0.722  0.00  0.00    +0.127 A 
ATOM     21  C   UNL     1       5.006   0.332   1.490  0.00  0.00    +0.068 A 
ATOM     22  C   UNL     1       6.377   0.158   1.278  0.00  0.00    +0.125 A 
ATOM     23  F   UNL     1       7.272   0.852   2.023  0.00  0.00    -0.205 F 
ATOM     24  C   UNL     1       6.826  -0.729   0.295  0.00  0.00    +0.041 A 
ATOM     25  C   UNL     1       5.904  -1.441  -0.477  0.00  0.00    +0.043 A 
ATOM     26  C   UNL     1       4.532  -1.270  -0.269  0.00  0.00    +0.148 A 
ATOM     27  F   UNL     1       3.653  -1.961  -1.038  0.00  0.00    -0.203 F 
ENDBRANCH  17  20
ENDBRANCH  16  17
ENDBRANCH   1  16
TORSDOF 4
