REMARK  Name = 
REMARK  3 active torsions:
REMARK  status: ('A' for Active; 'I' for Inactive)
REMARK    1  A    between atoms: C_4  and  S_10
REMARK    2  A    between atoms: S_10  and  C_11
REMARK    3  A    between atoms: C_14  and  C_16
REMARK                            x       y       z     vdW  Elec       q    Type
REMARK                         _______ _______ _______ _____ _____    ______ ____
ROOT
ATOM      1  C   UNL     1       0.250   0.497  -1.653  0.00  0.00    +0.195 A 
ATOM      2  N   UNL     1       0.212   1.734  -1.129  0.00  0.00    -0.122 NA
ATOM      3  N   UNL     1      -0.978   1.868  -0.563  0.00  0.00    -0.128 NA
ATOM      4  C   UNL     1      -1.642   0.708  -0.752  0.00  0.00    +0.162 A 
ATOM      5  N   UNL     1      -0.892  -0.177  -1.439  0.00  0.00    -0.316 N 
ATOM      6  H   UNL     1      -1.115  -1.151  -1.737  0.00  0.00    +0.169 HD
ENDROOT
BRANCH   4   7
ATOM      7  C   UNL     1      -3.018   0.460  -0.256  0.00  0.00    +0.022 A 
ATOM      8  C   UNL     1      -3.666  -0.769  -0.475  0.00  0.00    +0.031 A 
ATOM      9  C   UNL     1      -4.962  -0.964   0.010  0.00  0.00    +0.111 A 
ATOM     10  N   UNL     1      -5.594   0.028   0.690  0.00  0.00    -0.263 NA
ATOM     11  C   UNL     1      -4.995   1.226   0.918  0.00  0.00    +0.111 A 
ATOM     12  C   UNL     1      -3.700   1.464   0.452  0.00  0.00    +0.031 A 
ENDBRANCH   4   7
BRANCH   1  13
ATOM     13  S   UNL     1       1.663  -0.177  -2.517  0.00  0.00    -0.030 S 
BRANCH  13  17
ATOM     14  C   UNL     1       4.522   1.270   0.856  0.00  0.00    +0.085 A 
ATOM     15  C   UNL     1       3.723   1.133  -0.278  0.00  0.00    +0.031 A 
ATOM     16  C   UNL     1       3.211  -0.145  -0.199  0.00  0.00    +0.051 A 
ATOM     17  C   UNL     1       2.349  -0.869  -1.014  0.00  0.00    +0.117 A 
ATOM     18  N   UNL     1       2.029  -2.140  -0.632  0.00  0.00    -0.228 NA
ATOM     19  C   UNL     1       2.536  -2.689   0.518  0.00  0.00    +0.224 A 
ATOM     20  N   UNL     1       3.380  -1.970   1.316  0.00  0.00    -0.218 NA
ATOM     21  C   UNL     1       3.701  -0.708   0.939  0.00  0.00    +0.142 A 
ATOM     22  N   UNL     1       4.505   0.138   1.599  0.00  0.00    -0.346 N 
ATOM     23  H   UNL     1       5.010  -0.036   2.497  0.00  0.00    +0.167 HD
ENDBRANCH  13  17
ENDBRANCH   1  13
TORSDOF 3
