REMARK  Name = 
REMARK  10 active torsions:
REMARK  status: ('A' for Active; 'I' for Inactive)
REMARK    1  A    between atoms: C_1  and  C_2
REMARK    2  A    between atoms: C_2  and  C_3
REMARK    3  A    between atoms: C_2  and  C_4
REMARK    4  A    between atoms: C_2  and  C_5
REMARK    5  A    between atoms: C_7  and  C_10
REMARK    6  A    between atoms: N_12  and  C_13
REMARK    7  A    between atoms: C_13  and  C_14
REMARK    8  A    between atoms: C_13  and  C_18
REMARK    9  A    between atoms: C_14  and  C_15
REMARK   10  A    between atoms: C_15  and  O_17
REMARK                            x       y       z     vdW  Elec       q    Type
REMARK                         _______ _______ _______ _____ _____    ______ ____
ROOT
ATOM      1  C   UNL     1       0.059   0.010  -1.077  0.00  0.00    +0.266 C 
ATOM      2  O   UNL     1       0.513  -0.532  -2.119  0.00  0.00    -0.268 OA
ATOM      3  N   UNL     1       0.865   0.940  -0.332  0.00  0.00    -0.303 N 
ATOM      4  H   UNL     1       0.436   1.441   0.477  0.00  0.00    +0.150 HD
ENDROOT
BRANCH   1   7
ATOM      5  C   UNL     1      -3.194  -0.506   0.424  0.00  0.00    +0.143 A 
ATOM      6  C   UNL     1      -1.948   0.087   0.507  0.00  0.00    +0.081 A 
ATOM      7  C   UNL     1      -1.311  -0.322  -0.649  0.00  0.00    +0.168 A 
ATOM      8  N   UNL     1      -2.139  -1.112  -1.361  0.00  0.00    -0.073 NA
ATOM      9  O   UNL     1      -3.252  -1.199  -0.692  0.00  0.00    -0.358 OA
BRANCH   5  11
ATOM     10  C   UNL     1      -3.853  -1.011   2.775  0.00  0.00    +0.019 C 
ATOM     11  C   UNL     1      -4.315  -0.400   1.439  0.00  0.00    +0.023 C 
ATOM     12  C   UNL     1      -5.557  -1.164   0.937  0.00  0.00    +0.019 C 
ATOM     13  C   UNL     1      -4.686   1.081   1.645  0.00  0.00    +0.019 C 
ENDBRANCH   5  11
ENDBRANCH   1   7
BRANCH   3  14
ATOM     14  C   UNL     1       2.279   1.224  -0.607  0.00  0.00    +0.114 C 
BRANCH  14  15
ATOM     15  C   UNL     1       3.121  -0.030  -0.407  0.00  0.00    -0.027 A 
ATOM     16  C   UNL     1       3.518  -0.373   0.899  0.00  0.00    +0.008 A 
ATOM     17  C   UNL     1       4.253  -1.538   1.137  0.00  0.00    +0.038 A 
ATOM     18  C   UNL     1       4.596  -2.380   0.078  0.00  0.00    +0.123 A 
ATOM     19  F   UNL     1       5.310  -3.509   0.311  0.00  0.00    -0.205 F 
ATOM     20  C   UNL     1       4.194  -2.063  -1.221  0.00  0.00    +0.038 A 
ATOM     21  C   UNL     1       3.457  -0.900  -1.466  0.00  0.00    +0.008 A 
ENDBRANCH  14  15
BRANCH  14  22
ATOM     22  C   UNL     1       2.447   1.934  -1.968  0.00  0.00    +0.147 C 
BRANCH  22  23
ATOM     23  C   UNL     1       3.853   2.417  -2.167  0.00  0.00    +0.307 C 
ATOM     24  O   UNL     1       4.665   1.741  -2.854  0.00  0.00    -0.251 OA
BRANCH  23  25
ATOM     25  O   UNL     1       4.270   3.599  -1.563  0.00  0.00    -0.481 OA
ATOM     26  H   UNL     1       5.219   3.934  -1.678  0.00  0.00    +0.295 HD
ENDBRANCH  23  25
ENDBRANCH  22  23
ENDBRANCH  14  22
ENDBRANCH   3  14
TORSDOF 7
