REMARK  Name = 
REMARK  9 active torsions:
REMARK  status: ('A' for Active; 'I' for Inactive)
REMARK    1  A    between atoms: C_1  and  O_2
REMARK    2  A    between atoms: O_2  and  C_3
REMARK    3  A    between atoms: C_5  and  C_14
REMARK    4  A    between atoms: C_8  and  O_9
REMARK    5  A    between atoms: O_9  and  C_10
REMARK    6  A    between atoms: C_10  and  C_11
REMARK    7  A    between atoms: C_14  and  N_15
REMARK    8  A    between atoms: N_15  and  S_16
REMARK    9  A    between atoms: S_16  and  C_19
REMARK                            x       y       z     vdW  Elec       q    Type
REMARK                         _______ _______ _______ _____ _____    ______ ____
ROOT
ATOM      1  C   UNL     1       2.094  -0.706  -1.413  0.00  0.00    +0.162 A 
ATOM      2  C   UNL     1       0.728  -0.574  -1.735  0.00  0.00    +0.054 A 
ATOM      3  C   UNL     1      -0.189  -0.119  -0.777  0.00  0.00    -0.028 A 
ATOM      4  C   UNL     1       0.257   0.178   0.517  0.00  0.00    +0.009 A 
ATOM      5  C   UNL     1       1.607   0.050   0.844  0.00  0.00    +0.050 A 
ATOM      6  C   UNL     1       2.536  -0.388  -0.119  0.00  0.00    +0.163 A 
ENDROOT
BRANCH   1   8
ATOM      7  C   UNL     1       2.739  -1.507  -3.695  0.00  0.00    +0.277 C 
ATOM      8  O   UNL     1       3.040  -1.150  -2.350  0.00  0.00    -0.491 OA
ENDBRANCH   1   8
BRANCH   6   9
ATOM      9  O   UNL     1       3.905  -0.528   0.168  0.00  0.00    -0.479 OA
BRANCH   9  10
ATOM     10  C   UNL     1       4.530  -0.191   1.406  0.00  0.00    +0.324 C 
BRANCH  10  11
ATOM     11  C   UNL     1       4.578   1.297   1.587  0.00  0.00    +0.248 C 
ATOM     12  N   UNL     1       4.151   1.895   2.811  0.00  0.00    -0.327 N 
ATOM     13  O   UNL     1       5.024   2.024   0.660  0.00  0.00    -0.272 OA
ATOM     14  H   UNL     1       4.192   2.931   2.933  0.00  0.00    +0.145 HD
ATOM     15  H   UNL     1       3.792   1.309   3.596  0.00  0.00    +0.145 HD
ENDBRANCH  10  11
ENDBRANCH   9  10
ENDBRANCH   6   9
BRANCH   3  16
ATOM     16  C   UNL     1      -1.651  -0.016  -1.111  0.00  0.00    +0.141 C 
BRANCH  16  17
ATOM     17  N   UNL     1      -2.328  -1.255  -0.725  0.00  0.00    -0.185 NA
ATOM     18  H   UNL     1      -2.049  -2.003  -1.402  0.00  0.00    +0.148 HD
BRANCH  17  19
ATOM     19  S   UNL     1      -4.048  -1.059  -0.871  0.00  0.00    +0.065 S 
ATOM     20  O   UNL     1      -4.722  -2.384  -0.652  0.00  0.00    -0.153 OA
ATOM     21  O   UNL     1      -4.386  -0.554  -2.247  0.00  0.00    -0.153 OA
BRANCH  19  22
ATOM     22  C   UNL     1      -4.621   0.081   0.332  0.00  0.00    +0.142 A 
ATOM     23  C   UNL     1      -4.112   0.227   1.613  0.00  0.00    +0.036 A 
ATOM     24  C   UNL     1      -4.765   1.222   2.349  0.00  0.00    +0.010 A 
ATOM     25  C   UNL     1      -5.785   1.854   1.648  0.00  0.00    +0.047 A 
ATOM     26  S   UNL     1      -5.875   1.176   0.110  0.00  0.00    -0.077 S 
ENDBRANCH  19  22
ENDBRANCH  17  19
ENDBRANCH  16  17
ENDBRANCH   3  16
TORSDOF 8
