REMARK  Name = 
REMARK  9 active torsions:
REMARK  status: ('A' for Active; 'I' for Inactive)
REMARK    1  A    between atoms: C_1  and  C_2
REMARK    2  A    between atoms: C_5  and  C_8
REMARK    3  A    between atoms: C_8  and  N_9
REMARK    4  A    between atoms: C_10  and  C_12
REMARK    5  A    between atoms: C_17  and  N_18
REMARK    6  A    between atoms: N_18  and  S_19
REMARK    7  A    between atoms: S_19  and  C_22
REMARK    8  A    between atoms: C_25  and  C_28
REMARK    9  A    between atoms: C_28  and  O_30
REMARK                            x       y       z     vdW  Elec       q    Type
REMARK                         _______ _______ _______ _____ _____    ______ ____
ROOT
ATOM      1  C   UNL     1      -0.355  -2.658  -0.652  0.00  0.00    +0.059 A 
ATOM      2  C   UNL     1      -0.308  -3.999  -0.233  0.00  0.00    +0.015 A 
ATOM      3  C   UNL     1       0.899  -4.578   0.162  0.00  0.00    +0.001 A 
ATOM      4  C   UNL     1       2.072  -3.825   0.149  0.00  0.00    +0.002 A 
ATOM      5  C   UNL     1       2.042  -2.488  -0.248  0.00  0.00    +0.025 A 
ATOM      6  C   UNL     1       0.836  -1.887  -0.653  0.00  0.00    +0.060 A 
ENDROOT
BRANCH   1   8
ATOM      7  N   UNL     1      -2.868  -2.407  -0.478  0.00  0.00    -0.307 N 
ATOM      8  C   UNL     1      -1.635  -2.109  -1.150  0.00  0.00    +0.246 C 
ATOM      9  O   UNL     1      -1.643  -1.394  -2.189  0.00  0.00    -0.270 OA
ATOM     10  H   UNL     1      -2.854  -2.990   0.389  0.00  0.00    +0.149 HD
BRANCH   7  11
ATOM     11  C   UNL     1      -4.152  -1.872  -0.925  0.00  0.00    +0.139 C 
BRANCH  11  16
ATOM     12  C   UNL     1      -4.627   3.705   0.669  0.00  0.00    +0.044 C 
ATOM     13  C   UNL     1      -4.464   2.270   0.266  0.00  0.00    -0.050 A 
ATOM     14  C   UNL     1      -4.172   1.939  -1.066  0.00  0.00    +0.003 A 
ATOM     15  C   UNL     1      -4.074   0.599  -1.456  0.00  0.00    +0.005 A 
ATOM     16  C   UNL     1      -4.281  -0.428  -0.521  0.00  0.00    -0.030 A 
ATOM     17  C   UNL     1      -4.575  -0.096   0.810  0.00  0.00    +0.005 A 
ATOM     18  C   UNL     1      -4.679   1.244   1.199  0.00  0.00    +0.003 A 
ENDBRANCH  11  16
ENDBRANCH   7  11
ENDBRANCH   1   8
BRANCH   6  19
ATOM     19  N   UNL     1       0.806  -0.491  -0.999  0.00  0.00    -0.216 N 
ATOM     20  H   UNL     1      -0.060   0.069  -0.834  0.00  0.00    +0.174 HD
BRANCH  19  21
ATOM     21  S   UNL     1       2.122   0.308  -1.796  0.00  0.00    +0.072 S 
ATOM     22  O   UNL     1       2.792  -0.653  -2.737  0.00  0.00    -0.150 OA
ATOM     23  O   UNL     1       1.591   1.463  -2.596  0.00  0.00    -0.150 OA
BRANCH  21  24
ATOM     24  C   UNL     1       3.265   0.910  -0.601  0.00  0.00    +0.109 A 
ATOM     25  C   UNL     1       2.834   1.819   0.373  0.00  0.00    +0.029 A 
ATOM     26  C   UNL     1       3.729   2.303   1.331  0.00  0.00    +0.017 A 
ATOM     27  C   UNL     1       5.072   1.882   1.329  0.00  0.00    +0.059 A 
ATOM     28  C   UNL     1       5.498   0.966   0.350  0.00  0.00    +0.017 A 
ATOM     29  C   UNL     1       4.601   0.484  -0.608  0.00  0.00    +0.029 A 
BRANCH  27  30
ATOM     30  C   UNL     1       6.014   2.396   2.347  0.00  0.00    +0.337 C 
ATOM     31  O   UNL     1       7.227   2.052   2.326  0.00  0.00    -0.245 OA
BRANCH  30  32
ATOM     32  O   UNL     1       5.567   3.266   3.340  0.00  0.00    -0.477 OA
ATOM     33  H   UNL     1       6.202   3.622   4.046  0.00  0.00    +0.295 HD
ENDBRANCH  30  32
ENDBRANCH  27  30
ENDBRANCH  21  24
ENDBRANCH  19  21
ENDBRANCH   6  19
TORSDOF 8
