REMARK  Name = 
REMARK  6 active torsions:
REMARK  status: ('A' for Active; 'I' for Inactive)
REMARK    1  A    between atoms: C_1  and  N_2
REMARK    2  A    between atoms: N_2  and  S_3
REMARK    3  A    between atoms: S_3  and  C_6
REMARK    4  A    between atoms: C_8  and  N_13
REMARK    5  A    between atoms: C_11  and  C_12
REMARK    6  A    between atoms: C_14  and  C_16
REMARK                            x       y       z     vdW  Elec       q    Type
REMARK                         _______ _______ _______ _____ _____    ______ ____
ROOT
ATOM      1  C   UNL     1      -2.255  -0.722  -0.569  0.00  0.00    +0.110 A 
ATOM      2  C   UNL     1      -0.960  -0.250  -0.838  0.00  0.00    +0.052 A 
ATOM      3  C   UNL     1       0.100  -0.491   0.044  0.00  0.00    +0.036 A 
ATOM      4  C   UNL     1      -0.132  -1.250   1.199  0.00  0.00    +0.024 A 
ATOM      5  C   UNL     1      -1.413  -1.720   1.487  0.00  0.00    +0.007 A 
ATOM      6  C   UNL     1      -2.491  -1.452   0.626  0.00  0.00    -0.024 A 
ATOM      7  C   UNL     1      -3.849  -1.987   0.993  0.00  0.00    +0.046 C 
ENDROOT
BRANCH   3   8
ATOM      8  N   UNL     1       1.415  -0.009  -0.284  0.00  0.00    -0.280 N 
ATOM      9  C   UNL     1       2.380   0.417   0.693  0.00  0.00    +0.267 C 
ATOM     10  O   UNL     1       2.015   0.651   1.878  0.00  0.00    -0.268 OA
ATOM     11  H   UNL     1       1.644   0.124  -1.295  0.00  0.00    +0.155 HD
BRANCH   9  12
ATOM     12  C   UNL     1       3.793   0.620   0.308  0.00  0.00    +0.126 A 
ATOM     13  C   UNL     1       4.737   1.097   1.234  0.00  0.00    +0.033 A 
ATOM     14  C   UNL     1       6.064   1.272   0.835  0.00  0.00    +0.004 A 
ATOM     15  C   UNL     1       6.442   0.972  -0.474  0.00  0.00    +0.020 A 
ATOM     16  C   UNL     1       5.482   0.498  -1.369  0.00  0.00    +0.111 A 
ATOM     17  N   UNL     1       4.194   0.335  -0.963  0.00  0.00    -0.250 NA
ENDBRANCH   9  12
ENDBRANCH   3   8
BRANCH   1  18
ATOM     18  S   UNL     1      -3.521  -0.331  -1.753  0.00  0.00    +0.058 S 
ATOM     19  O   UNL     1      -4.712  -1.240  -1.633  0.00  0.00    -0.153 OA
ATOM     20  O   UNL     1      -2.949  -0.508  -3.132  0.00  0.00    -0.153 OA
BRANCH  18  22
ATOM     21  C   UNL     1      -4.631   1.518  -0.258  0.00  0.00    +0.127 C 
ATOM     22  N   UNL     1      -4.025   1.322  -1.572  0.00  0.00    -0.193 NA
ATOM     23  H   UNL     1      -3.163   1.913  -1.617  0.00  0.00    +0.148 HD
ENDBRANCH  18  22
ENDBRANCH   1  18
TORSDOF 4
