REMARK  Name = 
REMARK  7 active torsions:
REMARK  status: ('A' for Active; 'I' for Inactive)
REMARK    1  A    between atoms: C_1  and  C_2
REMARK    2  A    between atoms: C_7  and  C_8
REMARK    3  A    between atoms: C_9  and  C_10
REMARK    4  A    between atoms: C_9  and  C_15
REMARK    5  A    between atoms: C_10  and  C_11
REMARK    6  A    between atoms: C_11  and  C_12
REMARK    7  A    between atoms: C_12  and  O_14
REMARK                            x       y       z     vdW  Elec       q    Type
REMARK                         _______ _______ _______ _____ _____    ______ ____
ROOT
ATOM      1  C   UNL     1      -0.880  -1.204   0.167  0.00  0.00    +0.014 C 
ATOM      2  C   UNL     1       0.045  -0.233   0.013  0.00  0.00    -0.014 C 
ENDROOT
BRANCH   2   3
ATOM      3  C   UNL     1       1.435  -0.443   0.493  0.00  0.00    +0.106 A 
ATOM      4  N   UNL     1       2.381   0.531   0.459  0.00  0.00    -0.239 NA
ATOM      5  C   UNL     1       3.567   0.092   0.952  0.00  0.00    +0.079 A 
ATOM      6  C   UNL     1       4.720   0.873   1.043  0.00  0.00    +0.029 A 
ATOM      7  C   UNL     1       5.886   0.295   1.575  0.00  0.00    +0.002 A 
ATOM      8  C   UNL     1       5.885  -1.047   2.007  0.00  0.00    +0.001 A 
ATOM      9  C   UNL     1       4.718  -1.822   1.911  0.00  0.00    +0.017 A 
ATOM     10  C   UNL     1       3.578  -1.225   1.380  0.00  0.00    +0.040 A 
ATOM     11  S   UNL     1       2.057  -1.887   1.143  0.00  0.00    -0.067 S 
ENDBRANCH   2   3
BRANCH   1  18
ATOM     12  C   UNL     1      -1.689  -1.837  -2.610  0.00  0.00    +0.044 C 
ATOM     13  C   UNL     1      -2.685  -1.366  -1.584  0.00  0.00    -0.043 A 
ATOM     14  C   UNL     1      -4.033  -1.200  -1.948  0.00  0.00    +0.004 A 
ATOM     15  C   UNL     1      -4.971  -0.764  -1.008  0.00  0.00    +0.000 A 
ATOM     16  C   UNL     1      -4.576  -0.490   0.302  0.00  0.00    +0.001 A 
ATOM     17  C   UNL     1      -3.239  -0.643   0.676  0.00  0.00    +0.008 A 
ATOM     18  C   UNL     1      -2.285  -1.064  -0.262  0.00  0.00    -0.022 A 
ENDBRANCH   1  18
BRANCH   2  19
ATOM     19  C   UNL     1      -0.313   1.116  -0.580  0.00  0.00    +0.049 C 
BRANCH  19  20
ATOM     20  C   UNL     1      -0.706   2.105   0.521  0.00  0.00    +0.125 C 
BRANCH  20  21
ATOM     21  C   UNL     1      -1.086   3.424  -0.072  0.00  0.00    +0.305 C 
ATOM     22  O   UNL     1      -0.213   4.317  -0.238  0.00  0.00    -0.251 OA
BRANCH  21  23
ATOM     23  O   UNL     1      -2.397   3.646  -0.482  0.00  0.00    -0.481 OA
ATOM     24  H   UNL     1      -2.668   4.528  -0.902  0.00  0.00    +0.295 HD
ENDBRANCH  21  23
ENDBRANCH  20  21
ENDBRANCH  19  20
ENDBRANCH   2  19
TORSDOF 6
