REMARK  Name = 
REMARK  10 active torsions:
REMARK  status: ('A' for Active; 'I' for Inactive)
REMARK    1  A    between atoms: C_1  and  O_2
REMARK    2  A    between atoms: O_2  and  C_3
REMARK    3  A    between atoms: C_6  and  C_7
REMARK    4  A    between atoms: C_8  and  C_9
REMARK    5  A    between atoms: C_8  and  C_14
REMARK    6  A    between atoms: C_9  and  C_10
REMARK    7  A    between atoms: C_10  and  C_11
REMARK    8  A    between atoms: C_11  and  O_13
REMARK    9  A    between atoms: C_23  and  O_25
REMARK   10  A    between atoms: O_25  and  C_26
REMARK                            x       y       z     vdW  Elec       q    Type
REMARK                         _______ _______ _______ _____ _____    ______ ____
ROOT
ATOM      1  C   UNL     1       0.281  -0.842  -0.769  0.00  0.00    +0.017 C 
ATOM      2  C   UNL     1      -0.821  -0.077  -0.621  0.00  0.00    -0.014 C 
ENDROOT
BRANCH   2   3
ATOM      3  C   UNL     1      -2.167  -0.706  -0.612  0.00  0.00    +0.106 A 
ATOM      4  N   UNL     1      -3.296  -0.025  -0.286  0.00  0.00    -0.239 NA
ATOM      5  C   UNL     1      -4.395  -0.820  -0.356  0.00  0.00    +0.079 A 
ATOM      6  C   UNL     1      -5.694  -0.395  -0.075  0.00  0.00    +0.029 A 
ATOM      7  C   UNL     1      -6.746  -1.321  -0.186  0.00  0.00    +0.002 A 
ATOM      8  C   UNL     1      -6.488  -2.651  -0.574  0.00  0.00    +0.001 A 
ATOM      9  C   UNL     1      -5.176  -3.067  -0.855  0.00  0.00    +0.017 A 
ATOM     10  C   UNL     1      -4.154  -2.129  -0.737  0.00  0.00    +0.040 A 
ATOM     11  S   UNL     1      -2.511  -2.326  -1.002  0.00  0.00    -0.067 S 
ENDBRANCH   2   3
BRANCH   1  15
ATOM     12  C   UNL     1       4.301   0.652  -0.718  0.00  0.00    +0.124 A 
ATOM     13  C   UNL     1       3.460   0.910  -1.803  0.00  0.00    +0.046 A 
ATOM     14  C   UNL     1       2.152   0.425  -1.817  0.00  0.00    +0.015 A 
ATOM     15  C   UNL     1       1.659  -0.316  -0.734  0.00  0.00    +0.017 A 
ATOM     16  C   UNL     1       2.496  -0.602   0.359  0.00  0.00    +0.131 A 
ATOM     17  C   UNL     1       3.817  -0.109   0.364  0.00  0.00    +0.091 A 
BRANCH  12  19
ATOM     18  C   UNL     1       6.571   0.984   0.279  0.00  0.00    +0.277 C 
ATOM     19  O   UNL     1       5.607   1.165  -0.753  0.00  0.00    -0.495 OA
ENDBRANCH  12  19
BRANCH  16  20
ATOM     20  O   UNL     1       1.982  -1.365   1.421  0.00  0.00    -0.494 OA
ATOM     21  C   UNL     1       2.707  -1.706   2.597  0.00  0.00    +0.277 C 
ENDBRANCH  16  20
ENDBRANCH   1  15
BRANCH   2  22
ATOM     22  C   UNL     1      -0.722   1.410  -0.335  0.00  0.00    +0.049 C 
BRANCH  22  23
ATOM     23  C   UNL     1      -0.554   1.662   1.166  0.00  0.00    +0.125 C 
BRANCH  23  24
ATOM     24  C   UNL     1      -0.456   3.129   1.442  0.00  0.00    +0.305 C 
ATOM     25  O   UNL     1       0.668   3.699   1.439  0.00  0.00    -0.251 OA
BRANCH  24  26
ATOM     26  O   UNL     1      -1.613   3.871   1.658  0.00  0.00    -0.481 OA
ATOM     27  H   UNL     1      -1.565   4.868   1.831  0.00  0.00    +0.295 HD
ENDBRANCH  24  26
ENDBRANCH  23  24
ENDBRANCH  22  23
ENDBRANCH   2  22
TORSDOF 8
