REMARK  Name = 
REMARK  5 active torsions:
REMARK  status: ('A' for Active; 'I' for Inactive)
REMARK    1  A    between atoms: C_1  and  C_2
REMARK    2  A    between atoms: C_5  and  C_16
REMARK    3  A    between atoms: C_7  and  N_8
REMARK    4  A    between atoms: C_9  and  C_11
REMARK    5  A    between atoms: N_18  and  C_19
REMARK                            x       y       z     vdW  Elec       q    Type
REMARK                         _______ _______ _______ _____ _____    ______ ____
ROOT
ATOM      1  C   UNL     1      -2.413   3.266  -1.399  0.00  0.00    +0.045 C 
ATOM      2  C   UNL     1      -1.260   2.380  -1.010  0.00  0.00    -0.029 A 
ATOM      3  C   UNL     1       0.054   2.824  -1.226  0.00  0.00    +0.006 A 
ATOM      4  C   UNL     1       1.143   2.025  -0.875  0.00  0.00    +0.013 A 
ATOM      5  C   UNL     1       0.942   0.752  -0.317  0.00  0.00    +0.039 A 
ATOM      6  C   UNL     1      -0.372   0.307  -0.096  0.00  0.00    +0.036 A 
ATOM      7  C   UNL     1      -1.477   1.109  -0.433  0.00  0.00    +0.037 A 
ENDROOT
BRANCH   7   8
ATOM      8  N   UNL     1      -2.814   0.612  -0.238  0.00  0.00    -0.279 N 
ATOM      9  C   UNL     1      -3.217  -0.123   0.930  0.00  0.00    +0.284 C 
ATOM     10  O   UNL     1      -2.480  -0.138   1.953  0.00  0.00    -0.266 OA
ATOM     11  H   UNL     1      -3.542   0.861  -0.943  0.00  0.00    +0.155 HD
BRANCH   9  12
ATOM     12  C   UNL     1      -4.502  -0.840   0.972  0.00  0.00    +0.189 A 
ATOM     13  C   UNL     1      -5.398  -0.998  -0.071  0.00  0.00    +0.054 A 
ATOM     14  C   UNL     1      -6.439  -1.741   0.443  0.00  0.00    +0.042 A 
ATOM     15  C   UNL     1      -6.117  -1.992   1.761  0.00  0.00    +0.196 A 
ATOM     16  O   UNL     1      -4.958  -1.444   2.045  0.00  0.00    -0.458 OA
ENDBRANCH   9  12
ENDBRANCH   7   8
BRANCH   5  17
ATOM     17  C   UNL     1       2.084  -0.116   0.057  0.00  0.00    +0.248 C 
ATOM     18  O   UNL     1       1.952  -0.911   1.028  0.00  0.00    -0.270 OA
ATOM     19  N   UNL     1       3.333  -0.059  -0.659  0.00  0.00    -0.280 N 
ATOM     20  H   UNL     1       3.479   0.691  -1.370  0.00  0.00    +0.155 HD
BRANCH  19  21
ATOM     21  C   UNL     1       4.439  -0.944  -0.413  0.00  0.00    +0.052 A 
ATOM     22  C   UNL     1       4.249  -2.307  -0.125  0.00  0.00    +0.134 A 
ATOM     23  N   UNL     1       5.321  -3.120   0.072  0.00  0.00    -0.261 NA
ATOM     24  C   UNL     1       6.596  -2.656  -0.007  0.00  0.00    +0.111 A 
ATOM     25  C   UNL     1       6.833  -1.315  -0.314  0.00  0.00    +0.021 A 
ATOM     26  C   UNL     1       5.750  -0.461  -0.526  0.00  0.00    +0.026 A 
ENDBRANCH  19  21
ENDBRANCH   5  17
TORSDOF 4
