REMARK  Name = 
REMARK  3 active torsions:
REMARK  status: ('A' for Active; 'I' for Inactive)
REMARK    1  A    between atoms: C_2  and  O_3
REMARK    2  A    between atoms: C_2  and  C_4
REMARK    3  A    between atoms: C_9  and  C_10
REMARK                            x       y       z     vdW  Elec       q    Type
REMARK                         _______ _______ _______ _____ _____    ______ ____
ROOT
ATOM      1  C   UNL     1      -2.672  -0.076   0.876  0.00  0.00    +0.073 A 
ATOM      2  C   UNL     1      -1.269  -0.154   0.934  0.00  0.00    -0.007 A 
ATOM      3  C   UNL     1      -0.401  -0.443   2.120  0.00  0.00    +0.043 C 
ATOM      4  C   UNL     1       1.036  -0.507   1.552  0.00  0.00    +0.042 C 
ATOM      5  C   UNL     1       0.891  -0.175   0.092  0.00  0.00    -0.021 C 
ATOM      6  C   UNL     1       1.880   0.048  -0.787  0.00  0.00    +0.013 C 
ATOM      7  C   UNL     1      -0.515  -0.004  -0.198  0.00  0.00    +0.072 A 
ATOM      8  N   UNL     1      -1.071   0.238  -1.409  0.00  0.00    -0.247 NA
ATOM      9  C   UNL     1      -2.422   0.351  -1.531  0.00  0.00    +0.072 A 
ATOM     10  C   UNL     1      -2.977   0.619  -2.787  0.00  0.00    +0.028 A 
ATOM     11  C   UNL     1      -4.357   0.765  -2.930  0.00  0.00    +0.002 A 
ATOM     12  C   UNL     1      -5.192   0.654  -1.818  0.00  0.00    +0.001 A 
ATOM     13  C   UNL     1      -4.657   0.383  -0.555  0.00  0.00    +0.011 A 
ATOM     14  C   UNL     1      -3.267   0.205  -0.389  0.00  0.00    +0.015 A 
ENDROOT
BRANCH   6  15
ATOM     15  C   UNL     1       3.314  -0.052  -0.452  0.00  0.00    -0.025 A 
ATOM     16  C   UNL     1       3.852  -1.208   0.139  0.00  0.00    +0.009 A 
ATOM     17  C   UNL     1       5.219  -1.285   0.423  0.00  0.00    +0.020 A 
ATOM     18  C   UNL     1       6.062  -0.216   0.103  0.00  0.00    +0.041 A 
ATOM     19 CL   UNL     1       7.777  -0.315   0.457  0.00  0.00    -0.084 Cl
ATOM     20  C   UNL     1       5.539   0.925  -0.512  0.00  0.00    +0.020 A 
ATOM     21  C   UNL     1       4.172   1.004  -0.797  0.00  0.00    +0.009 A 
ENDBRANCH   6  15
BRANCH   1  23
ATOM     22  O   UNL     1      -4.473  -1.079   2.067  0.00  0.00    -0.245 OA
ATOM     23  C   UNL     1      -3.467  -0.320   2.101  0.00  0.00    +0.338 C 
BRANCH  23  24
ATOM     24  O   UNL     1      -3.082   0.255   3.308  0.00  0.00    -0.477 OA
ATOM     25  H   UNL     1      -3.608   0.082   4.157  0.00  0.00    +0.295 HD
ENDBRANCH  23  24
ENDBRANCH   1  23
TORSDOF 3
