REMARK  Name = 
REMARK  7 active torsions:
REMARK  status: ('A' for Active; 'I' for Inactive)
REMARK    1  A    between atoms: S_2  and  N_4
REMARK    2  A    between atoms: S_2  and  C_13
REMARK    3  A    between atoms: N_4  and  C_5
REMARK    4  A    between atoms: C_5  and  C_6
REMARK    5  A    between atoms: C_6  and  C_7
REMARK    6  A    between atoms: C_18  and  O_19
REMARK    7  A    between atoms: O_19  and  C_20
REMARK                            x       y       z     vdW  Elec       q    Type
REMARK                         _______ _______ _______ _____ _____    ______ ____
ROOT
ATOM      1  O   UNL     1      -0.384  -0.006  -3.127  0.00  0.00    -0.153 OA
ATOM      2  S   UNL     1      -0.559   0.234  -1.653  0.00  0.00    +0.062 S 
ATOM      3  O   UNL     1      -0.604   1.720  -1.427  0.00  0.00    -0.153 OA
ENDROOT
BRANCH   2   4
ATOM      4  C   UNL     1      -2.069  -0.520  -1.120  0.00  0.00    +0.147 A 
ATOM      5  C   UNL     1      -2.514  -1.681  -1.770  0.00  0.00    +0.032 A 
ATOM      6  C   UNL     1      -3.692  -2.310  -1.367  0.00  0.00    +0.002 A 
ATOM      7  C   UNL     1      -4.436  -1.788  -0.309  0.00  0.00    +0.004 A 
ATOM      8  C   UNL     1      -4.000  -0.639   0.354  0.00  0.00    +0.048 A 
ATOM      9  C   UNL     1      -2.810   0.007  -0.041  0.00  0.00    +0.156 A 
BRANCH   9  10
ATOM     10  O   UNL     1      -2.335   1.155   0.616  0.00  0.00    -0.404 OA
BRANCH  10  11
ATOM     11  C   UNL     1      -2.943   1.779   1.744  0.00  0.00    +0.575 C 
ATOM     12  F   UNL     1      -2.176   2.864   2.122  0.00  0.00    -0.133 F 
ATOM     13  F   UNL     1      -3.009   0.890   2.802  0.00  0.00    -0.133 F 
ATOM     14  F   UNL     1      -4.212   2.223   1.418  0.00  0.00    -0.133 F 
ENDBRANCH  10  11
ENDBRANCH   9  10
ENDBRANCH   2   4
BRANCH   2  15
ATOM     15  N   UNL     1       0.797  -0.452  -0.810  0.00  0.00    -0.190 NA
ATOM     16  H   UNL     1       0.776  -1.482  -0.989  0.00  0.00    +0.148 HD
BRANCH  15  17
ATOM     17  C   UNL     1       0.655  -0.234   0.632  0.00  0.00    +0.110 C 
BRANCH  17  18
ATOM     18  C   UNL     1       1.924  -0.674   1.367  0.00  0.00    +0.053 C 
BRANCH  18  19
ATOM     19  C   UNL     1       3.108   0.168   0.968  0.00  0.00    -0.028 A 
ATOM     20  C   UNL     1       3.971  -0.250  -0.056  0.00  0.00    +0.006 A 
ATOM     21  C   UNL     1       5.044   0.557  -0.437  0.00  0.00    +0.020 A 
ATOM     22  C   UNL     1       5.241   1.781   0.205  0.00  0.00    +0.111 A 
ATOM     23  N   UNL     1       4.390   2.179   1.188  0.00  0.00    -0.263 NA
ATOM     24  C   UNL     1       3.338   1.411   1.577  0.00  0.00    +0.114 A 
ENDBRANCH  18  19
ENDBRANCH  17  18
ENDBRANCH  15  17
ENDBRANCH   2  15
TORSDOF 7
