REMARK  Name = 
REMARK  7 active torsions:
REMARK  status: ('A' for Active; 'I' for Inactive)
REMARK    1  A    between atoms: C_1  and  C_2
REMARK    2  A    between atoms: C_2  and  C_3
REMARK    3  A    between atoms: C_2  and  N_4
REMARK    4  A    between atoms: C_14  and  C_15
REMARK    5  A    between atoms: C_15  and  C_16
REMARK    6  A    between atoms: C_15  and  S_18
REMARK    7  A    between atoms: S_18  and  C_21
REMARK                            x       y       z     vdW  Elec       q    Type
REMARK                         _______ _______ _______ _____ _____    ______ ____
ROOT
ATOM      1  N   UNL     1      -0.824  -1.657  -0.401  0.00  0.00    -0.325 N 
ATOM      2  C   UNL     1      -1.282  -0.300  -0.212  0.00  0.00    +0.144 A 
ATOM      3  N   UNL     1      -2.594  -0.069   0.070  0.00  0.00    -0.229 NA
ATOM      4  C   UNL     1      -3.074   1.177   0.304  0.00  0.00    +0.091 A 
ATOM      5  C   UNL     1      -4.428   1.379   0.593  0.00  0.00    +0.030 A 
ATOM      6  C   UNL     1      -4.901   2.672   0.844  0.00  0.00    +0.002 A 
ATOM      7  C   UNL     1      -4.021   3.761   0.809  0.00  0.00    +0.002 A 
ATOM      8  C   UNL     1      -2.667   3.562   0.520  0.00  0.00    +0.030 A 
ATOM      9  C   UNL     1      -2.193   2.270   0.267  0.00  0.00    +0.090 A 
ATOM     10  N   UNL     1      -0.885   2.055  -0.020  0.00  0.00    -0.244 NA
ATOM     11  C   UNL     1      -0.396   0.808  -0.283  0.00  0.00    +0.120 A 
ATOM     12  H   UNL     1       0.197  -1.867  -0.370  0.00  0.00    +0.148 HD
ENDROOT
BRANCH   1  14
ATOM     13  C   UNL     1      -2.585  -2.619  -1.859  0.00  0.00    +0.027 C 
ATOM     14  C   UNL     1      -1.702  -2.814  -0.621  0.00  0.00    +0.066 C 
ATOM     15  C   UNL     1      -2.530  -3.138   0.628  0.00  0.00    +0.027 C 
ENDBRANCH   1  14
BRANCH  11  16
ATOM     16  C   UNL     1       1.079   0.658  -0.588  0.00  0.00    +0.289 C 
BRANCH  16  17
ATOM     17  S   UNL     1       1.999   0.435   0.930  0.00  0.00    +0.018 S 
ATOM     18  O   UNL     1       1.928   1.689   1.757  0.00  0.00    -0.168 OA
ATOM     19  O   UNL     1       1.417  -0.697   1.729  0.00  0.00    -0.168 OA
BRANCH  17  20
ATOM     20  C   UNL     1       3.677   0.067   0.544  0.00  0.00    +0.090 A 
ATOM     21  C   UNL     1       4.044  -1.242   0.201  0.00  0.00    +0.030 A 
ATOM     22  C   UNL     1       5.372  -1.537  -0.124  0.00  0.00    +0.040 A 
ATOM     23  C   UNL     1       6.337  -0.526  -0.114  0.00  0.00    +0.124 A 
ATOM     24  F   UNL     1       7.623  -0.812  -0.431  0.00  0.00    -0.205 F 
ATOM     25  C   UNL     1       5.973   0.783   0.220  0.00  0.00    +0.040 A 
ATOM     26  C   UNL     1       4.646   1.080   0.545  0.00  0.00    +0.030 A 
ENDBRANCH  17  20
ENDBRANCH  16  17
BRANCH  16  27
ATOM     27  C   UNL     1       1.597   1.835  -1.303  0.00  0.00    +0.096 C 
ATOM     28  N   UNL     1       2.005   2.760  -1.865  0.00  0.00    -0.194 NA
ENDBRANCH  16  27
ENDBRANCH  11  16
TORSDOF 5
