REMARK  Name = 
REMARK  8 active torsions:
REMARK  status: ('A' for Active; 'I' for Inactive)
REMARK    1  A    between atoms: C_1  and  O_2
REMARK    2  A    between atoms: O_2  and  C_3
REMARK    3  A    between atoms: C_6  and  S_9
REMARK    4  A    between atoms: S_9  and  N_12
REMARK    5  A    between atoms: N_12  and  C_13
REMARK    6  A    between atoms: C_13  and  C_14
REMARK    7  A    between atoms: C_14  and  C_15
REMARK    8  A    between atoms: C_18  and  C_21
REMARK                            x       y       z     vdW  Elec       q    Type
REMARK                         _______ _______ _______ _____ _____    ______ ____
ROOT
ATOM      1  N   UNL     1      -0.666   0.139  -2.555  0.00  0.00    -0.190 NA
ATOM      2  H   UNL     1      -0.864   0.776  -1.749  0.00  0.00    +0.148 HD
ENDROOT
BRANCH   1   3
ATOM      3  S   UNL     1       0.958   0.492  -3.062  0.00  0.00    +0.058 S 
ATOM      4  O   UNL     1       1.030   1.914  -3.542  0.00  0.00    -0.153 OA
ATOM      5  O   UNL     1       1.343  -0.415  -4.197  0.00  0.00    -0.153 OA
BRANCH   3   9
ATOM      6  C   UNL     1       3.797  -0.057   0.485  0.00  0.00    +0.120 A 
ATOM      7  C   UNL     1       3.814  -0.966  -0.580  0.00  0.00    +0.047 A 
ATOM      8  C   UNL     1       2.956  -0.798  -1.671  0.00  0.00    +0.032 A 
ATOM      9  C   UNL     1       2.071   0.287  -1.710  0.00  0.00    +0.105 A 
ATOM     10  C   UNL     1       2.046   1.197  -0.647  0.00  0.00    +0.032 A 
ATOM     11  C   UNL     1       2.904   1.031   0.445  0.00  0.00    +0.047 A 
BRANCH   6  13
ATOM     12  C   UNL     1       4.763   0.570   2.704  0.00  0.00    +0.277 C 
ATOM     13  O   UNL     1       4.677  -0.270   1.557  0.00  0.00    -0.495 OA
ENDBRANCH   6  13
ENDBRANCH   3   9
ENDBRANCH   1   3
BRANCH   1  14
ATOM     14  C   UNL     1      -0.744  -1.246  -2.082  0.00  0.00    +0.110 C 
BRANCH  14  15
ATOM     15  C   UNL     1      -2.187  -1.616  -1.718  0.00  0.00    +0.052 C 
BRANCH  15  16
ATOM     16  C   UNL     1      -2.658  -0.884  -0.488  0.00  0.00    -0.046 A 
ATOM     17  C   UNL     1      -3.459   0.262  -0.604  0.00  0.00    +0.004 A 
ATOM     18  C   UNL     1      -3.863   0.961   0.537  0.00  0.00    +0.012 A 
ATOM     19  C   UNL     1      -3.484   0.517   1.816  0.00  0.00    +0.055 A 
ATOM     20  C   UNL     1      -2.654  -0.612   1.927  0.00  0.00    +0.012 A 
ATOM     21  C   UNL     1      -2.250  -1.310   0.785  0.00  0.00    +0.004 A 
BRANCH  19  22
ATOM     22  C   UNL     1      -3.875   1.301   3.043  0.00  0.00    +0.417 C 
ATOM     23  F   UNL     1      -5.097   1.925   2.856  0.00  0.00    -0.166 F 
ATOM     24  F   UNL     1      -3.979   0.467   4.143  0.00  0.00    -0.166 F 
ATOM     25  F   UNL     1      -2.913   2.261   3.295  0.00  0.00    -0.166 F 
ENDBRANCH  19  22
ENDBRANCH  15  16
ENDBRANCH  14  15
ENDBRANCH   1  14
TORSDOF 7
