REMARK  Name = 
REMARK  5 active torsions:
REMARK  status: ('A' for Active; 'I' for Inactive)
REMARK    1  A    between atoms: C_2  and  C_4
REMARK    2  A    between atoms: C_4  and  N_5
REMARK    3  A    between atoms: C_4  and  C_19
REMARK    4  A    between atoms: C_6  and  C_8
REMARK    5  A    between atoms: C_11  and  C_14
REMARK                            x       y       z     vdW  Elec       q    Type
REMARK                         _______ _______ _______ _____ _____    ______ ____
ROOT
ATOM      1  N   UNL     1      -1.115  -0.503   1.114  0.00  0.00    -0.296 N 
ATOM      2  C   UNL     1      -0.354   0.689   0.856  0.00  0.00    +0.245 C 
ATOM      3  O   UNL     1      -0.913   1.817   0.946  0.00  0.00    -0.270 OA
ATOM      4  H   UNL     1      -0.606  -1.404   1.260  0.00  0.00    +0.150 HD
ENDROOT
BRANCH   2   5
ATOM      5  C   UNL     1       1.082   0.616   0.495  0.00  0.00    +0.037 A 
ATOM      6  C   UNL     1       1.618  -0.529  -0.120  0.00  0.00    +0.014 A 
ATOM      7  C   UNL     1       2.972  -0.583  -0.464  0.00  0.00    +0.012 A 
ATOM      8  C   UNL     1       3.818   0.510  -0.206  0.00  0.00    +0.019 A 
ATOM      9  C   UNL     1       3.279   1.658   0.396  0.00  0.00    +0.012 A 
ATOM     10  C   UNL     1       1.926   1.713   0.739  0.00  0.00    +0.014 A 
BRANCH   8  11
ATOM     11  C   UNL     1       5.255   0.475  -0.560  0.00  0.00    +0.155 A 
ATOM     12  C   UNL     1       5.962  -0.555  -1.150  0.00  0.00    +0.160 A 
ATOM     13  N   UNL     1       7.245  -0.174  -1.296  0.00  0.00    -0.224 NA
ATOM     14  C   UNL     1       7.268   1.076  -0.788  0.00  0.00    +0.308 A 
ATOM     15  O   UNL     1       6.091   1.463  -0.352  0.00  0.00    -0.442 OA
ENDBRANCH   8  11
ENDBRANCH   2   5
BRANCH   1  16
ATOM     16  C   UNL     1      -2.580  -0.478   1.207  0.00  0.00    +0.189 C 
BRANCH  16  17
ATOM     17  C   UNL     1      -3.196  -0.168  -0.140  0.00  0.00    -0.018 A 
ATOM     18  C   UNL     1      -4.269   0.735  -0.233  0.00  0.00    +0.006 A 
ATOM     19  C   UNL     1      -4.856   1.011  -1.472  0.00  0.00    +0.000 A 
ATOM     20  C   UNL     1      -4.384   0.382  -2.627  0.00  0.00    +0.000 A 
ATOM     21  C   UNL     1      -3.326  -0.528  -2.544  0.00  0.00    +0.000 A 
ATOM     22  C   UNL     1      -2.737  -0.807  -1.308  0.00  0.00    +0.006 A 
ENDBRANCH  16  17
BRANCH  16  24
ATOM     23  N   UNL     1      -4.071  -1.824   2.775  0.00  0.00    -0.328 N 
ATOM     24  C   UNL     1      -3.112  -1.793   1.717  0.00  0.00    +0.235 C 
ATOM     25  O   UNL     1      -2.742  -2.875   1.186  0.00  0.00    -0.274 OA
ATOM     26  H   UNL     1      -4.445  -2.736   3.120  0.00  0.00    +0.145 HD
ATOM     27  H   UNL     1      -4.416  -0.941   3.213  0.00  0.00    +0.145 HD
ENDBRANCH  16  24
ENDBRANCH   1  16
TORSDOF 5
