REMARK  Name = 
REMARK  5 active torsions:
REMARK  status: ('A' for Active; 'I' for Inactive)
REMARK    1  A    between atoms: C_2  and  C_25
REMARK    2  A    between atoms: N_3  and  C_4
REMARK    3  A    between atoms: C_7  and  N_10
REMARK    4  A    between atoms: N_10  and  S_11
REMARK    5  A    between atoms: S_11  and  C_14
REMARK                            x       y       z     vdW  Elec       q    Type
REMARK                         _______ _______ _______ _____ _____    ______ ____
ROOT
ATOM      1  C   UNL     1       2.282   0.182  -0.889  0.00  0.00    +0.034 A 
ATOM      2  C   UNL     1       2.213   1.485  -1.410  0.00  0.00    +0.025 A 
ATOM      3  C   UNL     1       1.178   1.843  -2.278  0.00  0.00    +0.026 A 
ATOM      4  C   UNL     1       0.200   0.907  -2.651  0.00  0.00    +0.048 A 
ATOM      5  C   UNL     1       0.286  -0.404  -2.145  0.00  0.00    +0.026 A 
ATOM      6  C   UNL     1       1.323  -0.761  -1.279  0.00  0.00    +0.025 A 
ENDROOT
BRANCH   1   9
ATOM      7  O   UNL     1       3.327   1.718   1.292  0.00  0.00    -0.270 OA
ATOM      8  C   UNL     1       3.878   0.612   1.034  0.00  0.00    +0.248 C 
ATOM      9  N   UNL     1       3.354  -0.219  -0.020  0.00  0.00    -0.281 N 
ATOM     10  H   UNL     1       3.734  -1.180  -0.159  0.00  0.00    +0.155 HD
BRANCH   8  11
ATOM     11  C   UNL     1       5.060   0.197   1.834  0.00  0.00    +0.042 A 
ATOM     12  C   UNL     1       5.864   1.177   2.447  0.00  0.00    +0.051 A 
ATOM     13  C   UNL     1       6.985   0.811   3.200  0.00  0.00    +0.127 A 
ATOM     14  F   UNL     1       7.752   1.766   3.783  0.00  0.00    -0.205 F 
ATOM     15  C   UNL     1       7.313  -0.537   3.355  0.00  0.00    +0.076 A 
ATOM     16  C   UNL     1       6.516  -1.522   2.765  0.00  0.00    +0.127 A 
ATOM     17  F   UNL     1       6.824  -2.831   2.934  0.00  0.00    -0.205 F 
ATOM     18  C   UNL     1       5.392  -1.161   2.013  0.00  0.00    +0.051 A 
ENDBRANCH   8  11
ENDBRANCH   1   9
BRANCH   4  19
ATOM     19  N   UNL     1      -0.854   1.314  -3.544  0.00  0.00    -0.216 N 
ATOM     20  H   UNL     1      -0.861   2.294  -3.907  0.00  0.00    +0.174 HD
BRANCH  19  21
ATOM     21  S   UNL     1      -2.160   0.284  -4.041  0.00  0.00    +0.072 S 
ATOM     22  O   UNL     1      -1.602  -0.899  -4.783  0.00  0.00    -0.150 OA
ATOM     23  O   UNL     1      -3.070   1.047  -4.963  0.00  0.00    -0.150 OA
BRANCH  21  24
ATOM     24  C   UNL     1      -3.082  -0.231  -2.633  0.00  0.00    +0.112 A 
ATOM     25  C   UNL     1      -3.457  -1.569  -2.477  0.00  0.00    +0.032 A 
ATOM     26  C   UNL     1      -4.191  -1.963  -1.357  0.00  0.00    +0.051 A 
ATOM     27  C   UNL     1      -4.547  -1.036  -0.369  0.00  0.00    +0.162 A 
ATOM     28  O   UNL     1      -5.328  -1.500   0.696  0.00  0.00    -0.488 OA
ATOM     29  C   UNL     1      -5.117  -1.168   2.063  0.00  0.00    +0.232 C 
ATOM     30  C   UNL     1      -5.489   0.279   2.351  0.00  0.00    +0.082 C 
ATOM     31  C   UNL     1      -4.446   1.233   1.786  0.00  0.00    +0.232 C 
ATOM     32  O   UNL     1      -4.542   1.331   0.371  0.00  0.00    -0.488 OA
ATOM     33  C   UNL     1      -4.170   0.322  -0.524  0.00  0.00    +0.164 A 
ATOM     34  C   UNL     1      -3.450   0.707  -1.662  0.00  0.00    +0.078 A 
ENDBRANCH  21  24
ENDBRANCH  19  21
ENDBRANCH   4  19
TORSDOF 5
