REMARK  Name = 
REMARK  6 active torsions:
REMARK  status: ('A' for Active; 'I' for Inactive)
REMARK    1  A    between atoms: C_1  and  C_2
REMARK    2  A    between atoms: C_2  and  C_3
REMARK    3  A    between atoms: N_5  and  C_6
REMARK    4  A    between atoms: C_9  and  S_12
REMARK    5  A    between atoms: S_12  and  N_15
REMARK    6  A    between atoms: C_19  and  C_21
REMARK                            x       y       z     vdW  Elec       q    Type
REMARK                         _______ _______ _______ _____ _____    ______ ____
ROOT
ATOM      1  S   UNL     1      -0.720   1.172  -0.472  0.00  0.00    +0.061 S 
ATOM      2  O   UNL     1      -1.033   2.571  -0.927  0.00  0.00    -0.153 OA
ATOM      3  O   UNL     1      -1.192   0.216  -1.532  0.00  0.00    -0.153 OA
ENDROOT
BRANCH   1   7
ATOM      4  C   UNL     1       3.806   0.793   0.089  0.00  0.00    +0.033 A 
ATOM      5  C   UNL     1       3.084  -0.228  -0.555  0.00  0.00    +0.025 A 
ATOM      6  C   UNL     1       1.702  -0.112  -0.731  0.00  0.00    +0.030 A 
ATOM      7  C   UNL     1       1.026   1.030  -0.279  0.00  0.00    +0.106 A 
ATOM      8  C   UNL     1       1.744   2.055   0.348  0.00  0.00    +0.030 A 
ATOM      9  C   UNL     1       3.127   1.941   0.522  0.00  0.00    +0.025 A 
BRANCH   4  12
ATOM     10  C   UNL     1       5.942  -0.511   0.519  0.00  0.00    +0.217 C 
ATOM     11  O   UNL     1       5.320  -1.565   0.824  0.00  0.00    -0.275 OA
ATOM     12  N   UNL     1       5.231   0.710   0.261  0.00  0.00    -0.286 N 
ATOM     13  H   UNL     1       5.776   1.602   0.276  0.00  0.00    +0.155 HD
BRANCH  10  15
ATOM     14  C   UNL     1       7.886  -0.675  -1.018  0.00  0.00    +0.013 C 
ATOM     15  C   UNL     1       7.438  -0.540   0.432  0.00  0.00    +0.093 C 
ENDBRANCH  10  15
ENDBRANCH   4  12
ENDBRANCH   1   7
BRANCH   1  16
ATOM     16  N   UNL     1      -1.535   0.865   1.048  0.00  0.00    -0.172 NA
ATOM     17  C   UNL     1      -1.073  -0.384   1.680  0.00  0.00    +0.137 C 
ATOM     18  C   UNL     1      -1.604  -1.640   0.951  0.00  0.00    +0.178 C 
ATOM     19  O   UNL     1      -2.731  -1.386   0.129  0.00  0.00    -0.369 OA
ATOM     20  C   UNL     1      -3.631  -0.510   0.777  0.00  0.00    +0.164 C 
ATOM     21  C   UNL     1      -3.006   0.902   0.898  0.00  0.00    +0.146 C 
BRANCH  20  22
ATOM     22  C   UNL     1      -4.929  -0.451   0.004  0.00  0.00    -0.018 A 
ATOM     23  C   UNL     1      -4.923  -0.353  -1.399  0.00  0.00    +0.007 A 
ATOM     24  C   UNL     1      -6.126  -0.264  -2.107  0.00  0.00    +0.020 A 
ATOM     25  C   UNL     1      -7.345  -0.263  -1.421  0.00  0.00    +0.041 A 
ATOM     26 CL   UNL     1      -8.852  -0.151  -2.311  0.00  0.00    -0.084 Cl
ATOM     27  C   UNL     1      -7.359  -0.344  -0.026  0.00  0.00    +0.020 A 
ATOM     28  C   UNL     1      -6.159  -0.431   0.685  0.00  0.00    +0.007 A 
ENDBRANCH  20  22
ENDBRANCH   1  16
TORSDOF 5
