REMARK  Name = 
REMARK  10 active torsions:
REMARK  status: ('A' for Active; 'I' for Inactive)
REMARK    1  A    between atoms: C_1  and  O_2
REMARK    2  A    between atoms: O_2  and  C_3
REMARK    3  A    between atoms: C_8  and  O_9
REMARK    4  A    between atoms: O_9  and  C_10
REMARK    5  A    between atoms: C_10  and  C_11
REMARK    6  A    between atoms: N_13  and  C_14
REMARK    7  A    between atoms: C_14  and  C_15
REMARK    8  A    between atoms: C_14  and  C_19
REMARK    9  A    between atoms: C_15  and  C_16
REMARK   10  A    between atoms: C_16  and  O_18
REMARK                            x       y       z     vdW  Elec       q    Type
REMARK                         _______ _______ _______ _____ _____    ______ ____
ROOT
ATOM      1  C   UNL     1      -0.240   0.946   0.567  0.00  0.00    +0.251 C 
ATOM      2  O   UNL     1      -0.603   1.508   1.636  0.00  0.00    -0.272 OA
ATOM      3  N   UNL     1      -0.860  -0.276   0.143  0.00  0.00    -0.305 N 
ATOM      4  H   UNL     1      -0.520  -0.723  -0.740  0.00  0.00    +0.149 HD
ENDROOT
BRANCH   1   5
ATOM      5  C   UNL     1       0.870   1.539  -0.238  0.00  0.00    +0.324 C 
BRANCH   5   6
ATOM      6  O   UNL     1       2.050   0.765  -0.045  0.00  0.00    -0.479 OA
BRANCH   6  12
ATOM      7  C   UNL     1       4.364   0.173  -0.378  0.00  0.00    +0.162 A 
ATOM      8  C   UNL     1       5.612   0.406  -0.990  0.00  0.00    +0.049 A 
ATOM      9  C   UNL     1       5.775   1.473  -1.875  0.00  0.00    +0.004 A 
ATOM     10  C   UNL     1       4.701   2.317  -2.160  0.00  0.00    +0.004 A 
ATOM     11  C   UNL     1       3.459   2.096  -1.561  0.00  0.00    +0.049 A 
ATOM     12  C   UNL     1       3.282   1.022  -0.666  0.00  0.00    +0.163 A 
BRANCH   7  14
ATOM     13  C   UNL     1       5.162  -1.823   0.904  0.00  0.00    +0.277 C 
ATOM     14  O   UNL     1       4.159  -0.888   0.518  0.00  0.00    -0.491 OA
ENDBRANCH   7  14
ENDBRANCH   6  12
ENDBRANCH   5   6
ENDBRANCH   1   5
BRANCH   3  15
ATOM     15  C   UNL     1      -1.949  -0.902   0.901  0.00  0.00    +0.114 C 
BRANCH  15  16
ATOM     16  C   UNL     1      -3.208  -0.065   0.787  0.00  0.00    -0.027 A 
ATOM     17  C   UNL     1      -3.933   0.282   1.940  0.00  0.00    +0.005 A 
ATOM     18  C   UNL     1      -5.104   1.039   1.838  0.00  0.00    +0.000 A 
ATOM     19  C   UNL     1      -5.564   1.451   0.585  0.00  0.00    +0.000 A 
ATOM     20  C   UNL     1      -4.856   1.105  -0.569  0.00  0.00    +0.000 A 
ATOM     21  C   UNL     1      -3.684   0.349  -0.471  0.00  0.00    +0.005 A 
ENDBRANCH  15  16
BRANCH  15  22
ATOM     22  C   UNL     1      -2.192  -2.338   0.398  0.00  0.00    +0.147 C 
BRANCH  22  23
ATOM     23  C   UNL     1      -3.197  -3.056   1.246  0.00  0.00    +0.307 C 
ATOM     24  O   UNL     1      -2.839  -3.601   2.325  0.00  0.00    -0.251 OA
BRANCH  23  25
ATOM     25  O   UNL     1      -4.534  -3.086   0.862  0.00  0.00    -0.481 OA
ATOM     26  H   UNL     1      -5.229  -3.551   1.434  0.00  0.00    +0.295 HD
ENDBRANCH  23  25
ENDBRANCH  22  23
ENDBRANCH  15  22
ENDBRANCH   3  15
TORSDOF 9
