REMARK  Name = 
REMARK  6 active torsions:
REMARK  status: ('A' for Active; 'I' for Inactive)
REMARK    1  A    between atoms: C_1  and  C_2
REMARK    2  A    between atoms: C_8  and  C_10
REMARK    3  A    between atoms: C_13  and  S_16
REMARK    4  A    between atoms: S_16  and  N_19
REMARK    5  A    between atoms: N_19  and  C_20
REMARK    6  A    between atoms: C_25  and  C_26
REMARK                            x       y       z     vdW  Elec       q    Type
REMARK                         _______ _______ _______ _____ _____    ______ ____
ROOT
ATOM      1  C   UNL     1       1.262   1.415   0.266  0.00  0.00    +0.037 A 
ATOM      2  C   UNL     1       0.676   2.602   0.743  0.00  0.00    +0.015 A 
ATOM      3  C   UNL     1      -0.556   3.035   0.247  0.00  0.00    +0.029 A 
ATOM      4  C   UNL     1      -1.226   2.286  -0.728  0.00  0.00    +0.109 A 
ATOM      5  C   UNL     1      -0.653   1.102  -1.204  0.00  0.00    +0.029 A 
ATOM      6  C   UNL     1       0.580   0.665  -0.710  0.00  0.00    +0.015 A 
ENDROOT
BRANCH   1  14
ATOM      7  C   UNL     1       7.293  -2.961   0.044  0.00  0.00    +0.066 C 
ATOM      8  C   UNL     1       6.206  -2.133   0.647  0.00  0.00    +0.047 A 
ATOM      9  C   UNL     1       6.045  -1.984   2.022  0.00  0.00    +0.071 A 
ATOM     10  S   UNL     1       4.741  -0.955   2.280  0.00  0.00    -0.060 S 
ATOM     11  C   UNL     1       4.454  -0.730   0.634  0.00  0.00    +0.165 A 
ATOM     12  N   UNL     1       5.324  -1.435  -0.120  0.00  0.00    -0.230 NA
ATOM     13  N   UNL     1       3.396   0.052   0.060  0.00  0.00    -0.261 N 
ATOM     14  C   UNL     1       2.566   0.958   0.807  0.00  0.00    +0.250 C 
ATOM     15  O   UNL     1       2.961   1.402   1.919  0.00  0.00    -0.270 OA
ATOM     16  H   UNL     1       3.260  -0.018  -0.972  0.00  0.00    +0.157 HD
ENDBRANCH   1  14
BRANCH   4  17
ATOM     17  S   UNL     1      -2.793   2.806  -1.342  0.00  0.00    +0.072 S 
ATOM     18  O   UNL     1      -3.380   3.880  -0.468  0.00  0.00    -0.150 OA
ATOM     19  O   UNL     1      -2.608   3.350  -2.730  0.00  0.00    -0.150 OA
BRANCH  17  20
ATOM     20  N   UNL     1      -3.881   1.456  -1.393  0.00  0.00    -0.216 N 
ATOM     21  H   UNL     1      -4.416   1.321  -2.279  0.00  0.00    +0.174 HD
BRANCH  20  22
ATOM     22  C   UNL     1      -3.949   0.467  -0.348  0.00  0.00    +0.051 A 
ATOM     23  C   UNL     1      -3.658   0.819   0.984  0.00  0.00    +0.025 A 
ATOM     24  C   UNL     1      -3.726  -0.132   2.003  0.00  0.00    +0.002 A 
ATOM     25  C   UNL     1      -4.094  -1.444   1.712  0.00  0.00    +0.000 A 
ATOM     26  C   UNL     1      -4.393  -1.812   0.400  0.00  0.00    +0.005 A 
ATOM     27  C   UNL     1      -4.319  -0.869  -0.641  0.00  0.00    -0.028 A 
ATOM     28  C   UNL     1      -4.630  -1.303  -2.048  0.00  0.00    +0.046 C 
ENDBRANCH  20  22
ENDBRANCH  17  20
ENDBRANCH   4  17
TORSDOF 4
