REMARK  Name = 
REMARK  7 active torsions:
REMARK  status: ('A' for Active; 'I' for Inactive)
REMARK    1  A    between atoms: S_2  and  N_4
REMARK    2  A    between atoms: S_2  and  C_18
REMARK    3  A    between atoms: N_4  and  C_5
REMARK    4  A    between atoms: N_11  and  C_12
REMARK    5  A    between atoms: C_21  and  S_24
REMARK    6  A    between atoms: S_24  and  N_27
REMARK    7  A    between atoms: N_27  and  C_28
REMARK                            x       y       z     vdW  Elec       q    Type
REMARK                         _______ _______ _______ _____ _____    ______ ____
ROOT
ATOM      1  O   UNL     1       1.936  -4.241   1.273  0.00  0.00    -0.150 OA
ATOM      2  S   UNL     1       1.384  -2.987   1.891  0.00  0.00    +0.072 S 
ATOM      3  O   UNL     1       1.510  -3.080   3.385  0.00  0.00    -0.150 OA
ENDROOT
BRANCH   2   4
ATOM      4  C   UNL     1      -0.313  -2.773   1.476  0.00  0.00    +0.109 A 
ATOM      5  C   UNL     1      -1.012  -1.672   1.986  0.00  0.00    +0.031 A 
ATOM      6  C   UNL     1      -2.327  -1.426   1.586  0.00  0.00    +0.030 A 
ATOM      7  C   UNL     1      -2.955  -2.279   0.669  0.00  0.00    +0.105 A 
ATOM      8  C   UNL     1      -2.261  -3.389   0.168  0.00  0.00    +0.030 A 
ATOM      9  C   UNL     1      -0.946  -3.637   0.572  0.00  0.00    +0.031 A 
BRANCH   7  10
ATOM     10  S   UNL     1      -4.559  -1.892   0.054  0.00  0.00    +0.059 S 
ATOM     11  O   UNL     1      -5.309  -1.066   1.062  0.00  0.00    -0.153 OA
ATOM     12  O   UNL     1      -5.322  -3.165  -0.184  0.00  0.00    -0.153 OA
BRANCH  10  13
ATOM     13  N   UNL     1      -4.420  -1.018  -1.440  0.00  0.00    -0.187 NA
ATOM     14  H   UNL     1      -5.383  -0.702  -1.696  0.00  0.00    +0.148 HD
BRANCH  13  15
ATOM     15  C   UNL     1      -3.620   0.181  -1.206  0.00  0.00    +0.077 C 
ATOM     16  C   UNL     1      -2.152   0.016  -1.563  0.00  0.00    +0.022 C 
ATOM     17  C   UNL     1      -3.078   0.787  -2.490  0.00  0.00    +0.022 C 
ENDBRANCH  13  15
ENDBRANCH  10  13
ENDBRANCH   7  10
ENDBRANCH   2   4
BRANCH   2  18
ATOM     18  N   UNL     1       2.278  -1.617   1.317  0.00  0.00    -0.213 N 
ATOM     19  H   UNL     1       2.968  -1.183   1.969  0.00  0.00    +0.174 HD
BRANCH  18  20
ATOM     20  C   UNL     1       1.940  -0.955   0.087  0.00  0.00    +0.088 A 
ATOM     21  C   UNL     1       1.594  -1.704  -1.049  0.00  0.00    +0.029 A 
ATOM     22  C   UNL     1       1.287  -1.061  -2.247  0.00  0.00    +0.022 A 
ATOM     23  C   UNL     1       1.330   0.330  -2.305  0.00  0.00    +0.113 A 
ATOM     24  N   UNL     1       1.662   1.046  -1.200  0.00  0.00    -0.238 NA
ATOM     25  C   UNL     1       1.974   0.452  -0.013  0.00  0.00    +0.145 A 
ATOM     26  N   UNL     1       2.240   1.266   1.142  0.00  0.00    -0.298 N 
ATOM     27  H   UNL     1       1.967   0.897   2.081  0.00  0.00    +0.154 HD
BRANCH  26  28
ATOM     28  C   UNL     1       2.707   2.625   1.070  0.00  0.00    +0.032 A 
ATOM     29  C   UNL     1       2.359   3.529   2.087  0.00  0.00    +0.023 A 
ATOM     30  C   UNL     1       2.821   4.848   2.050  0.00  0.00    +0.002 A 
ATOM     31  C   UNL     1       3.646   5.272   1.005  0.00  0.00    +0.000 A 
ATOM     32  C   UNL     1       4.014   4.376  -0.001  0.00  0.00    +0.002 A 
ATOM     33  C   UNL     1       3.554   3.055   0.032  0.00  0.00    +0.023 A 
ENDBRANCH  26  28
ENDBRANCH  18  20
ENDBRANCH   2  18
TORSDOF 7
