REMARK  Name = 
REMARK  8 active torsions:
REMARK  status: ('A' for Active; 'I' for Inactive)
REMARK    1  A    between atoms: C_1  and  S_2
REMARK    2  A    between atoms: S_2  and  N_5
REMARK    3  A    between atoms: N_5  and  C_6
REMARK    4  A    between atoms: C_10  and  C_12
REMARK    5  A    between atoms: C_12  and  N_13
REMARK    6  A    between atoms: C_14  and  C_16
REMARK    7  A    between atoms: C_21  and  C_22
REMARK    8  A    between atoms: C_22  and  C_24
REMARK                            x       y       z     vdW  Elec       q    Type
REMARK                         _______ _______ _______ _____ _____    ______ ____
ROOT
ATOM      1  N   UNL     1       0.336   0.016  -0.207  0.00  0.00    -0.307 N 
ATOM      2  C   UNL     1       1.153  -1.152  -0.033  0.00  0.00    +0.245 C 
ATOM      3  O   UNL     1       1.192  -1.732   1.086  0.00  0.00    -0.270 OA
ATOM      4  H   UNL     1       0.155   0.377  -1.171  0.00  0.00    +0.149 HD
ENDROOT
BRANCH   2   5
ATOM      5  C   UNL     1       1.936  -1.703  -1.163  0.00  0.00    +0.047 A 
ATOM      6  C   UNL     1       1.944  -3.096  -1.350  0.00  0.00    +0.014 A 
ATOM      7  C   UNL     1       2.610  -3.665  -2.436  0.00  0.00    +0.001 A 
ATOM      8  C   UNL     1       3.278  -2.852  -3.351  0.00  0.00    +0.001 A 
ATOM      9  C   UNL     1       3.301  -1.469  -3.171  0.00  0.00    +0.012 A 
ATOM     10  C   UNL     1       2.656  -0.878  -2.070  0.00  0.00    +0.034 A 
BRANCH  10  11
ATOM     11  C   UNL     1       2.782   0.590  -1.895  0.00  0.00    +0.194 C 
ATOM     12  O   UNL     1       2.577   1.337  -2.890  0.00  0.00    -0.287 OA
BRANCH  11  13
ATOM     13  C   UNL     1       3.161   1.202  -0.597  0.00  0.00    +0.022 A 
ATOM     14  C   UNL     1       3.923   0.488   0.346  0.00  0.00    +0.013 A 
ATOM     15  C   UNL     1       4.259   1.071   1.571  0.00  0.00    +0.016 A 
ATOM     16  C   UNL     1       3.848   2.375   1.865  0.00  0.00    +0.018 A 
ATOM     17 BR   UNL     1       4.309   3.170   3.540  0.00  0.00    -0.050 Br
ATOM     18  C   UNL     1       3.104   3.098   0.929  0.00  0.00    +0.016 A 
ATOM     19  C   UNL     1       2.765   2.517  -0.298  0.00  0.00    +0.013 A 
ENDBRANCH  11  13
ENDBRANCH  10  11
ENDBRANCH   2   5
BRANCH   1  20
ATOM     20  C   UNL     1      -0.254   0.733   0.921  0.00  0.00    +0.140 C 
BRANCH  20  25
ATOM     21  C   UNL     1      -3.859  -0.514   1.007  0.00  0.00    +0.048 A 
ATOM     22  C   UNL     1      -3.846  -1.271   2.189  0.00  0.00    +0.024 A 
ATOM     23  C   UNL     1      -2.682  -1.376   2.954  0.00  0.00    +0.002 A 
ATOM     24  C   UNL     1      -1.517  -0.723   2.551  0.00  0.00    +0.005 A 
ATOM     25  C   UNL     1      -1.509   0.042   1.375  0.00  0.00    -0.029 A 
ATOM     26  C   UNL     1      -2.676   0.133   0.601  0.00  0.00    +0.029 A 
BRANCH  21  27
ATOM     27  N   UNL     1      -5.079  -0.430   0.245  0.00  0.00    -0.221 N 
ATOM     28  H   UNL     1      -5.911  -0.976   0.565  0.00  0.00    +0.173 HD
BRANCH  27  30
ATOM     29  C   UNL     1      -5.190   2.295  -0.702  0.00  0.00    +0.218 C 
ATOM     30  S   UNL     1      -5.302   0.576  -1.153  0.00  0.00    +0.040 S 
ATOM     31  O   UNL     1      -6.670   0.320  -1.720  0.00  0.00    -0.155 OA
ATOM     32  O   UNL     1      -4.279   0.237  -2.199  0.00  0.00    -0.155 OA
ENDBRANCH  27  30
ENDBRANCH  21  27
ENDBRANCH  20  25
ENDBRANCH   1  20
TORSDOF 7
