REMARK  Name = 
REMARK  7 active torsions:
REMARK  status: ('A' for Active; 'I' for Inactive)
REMARK    1  A    between atoms: C_1  and  O_2
REMARK    2  A    between atoms: O_2  and  C_3
REMARK    3  A    between atoms: C_6  and  N_9
REMARK    4  A    between atoms: C_10  and  C_12
REMARK    5  A    between atoms: C_15  and  N_18
REMARK    6  A    between atoms: N_18  and  S_19
REMARK    7  A    between atoms: S_19  and  C_22
REMARK                            x       y       z     vdW  Elec       q    Type
REMARK                         _______ _______ _______ _____ _____    ______ ____
ROOT
ATOM      1  C   UNL     1      -0.906   1.276  -0.093  0.00  0.00    +0.037 A 
ATOM      2  C   UNL     1      -0.645   2.567   0.397  0.00  0.00    +0.015 A 
ATOM      3  C   UNL     1       0.515   3.248   0.019  0.00  0.00    +0.025 A 
ATOM      4  C   UNL     1       1.445   2.655  -0.846  0.00  0.00    +0.048 A 
ATOM      5  C   UNL     1       1.188   1.361  -1.334  0.00  0.00    +0.025 A 
ATOM      6  C   UNL     1       0.030   0.678  -0.955  0.00  0.00    +0.015 A 
ENDROOT
BRANCH   1   8
ATOM      7  N   UNL     1      -3.352   1.214   0.617  0.00  0.00    -0.281 N 
ATOM      8  C   UNL     1      -2.124   0.528   0.301  0.00  0.00    +0.248 C 
ATOM      9  O   UNL     1      -2.071  -0.731   0.362  0.00  0.00    -0.270 OA
ATOM     10  H   UNL     1      -3.349   2.254   0.692  0.00  0.00    +0.155 HD
BRANCH   7  14
ATOM     11  C   UNL     1      -7.047  -0.697   1.524  0.00  0.00    +0.120 A 
ATOM     12  C   UNL     1      -6.659   0.470   2.192  0.00  0.00    +0.047 A 
ATOM     13  C   UNL     1      -5.444   1.091   1.889  0.00  0.00    +0.027 A 
ATOM     14  C   UNL     1      -4.587   0.544   0.923  0.00  0.00    +0.034 A 
ATOM     15  C   UNL     1      -4.987  -0.613   0.231  0.00  0.00    +0.027 A 
ATOM     16  C   UNL     1      -6.203  -1.234   0.535  0.00  0.00    +0.047 A 
BRANCH  11  18
ATOM     17  C   UNL     1      -8.788  -2.474   1.276  0.00  0.00    +0.277 C 
ATOM     18  O   UNL     1      -8.272  -1.286   1.869  0.00  0.00    -0.495 OA
ENDBRANCH  11  18
ENDBRANCH   7  14
ENDBRANCH   1   8
BRANCH   4  19
ATOM     19  N   UNL     1       2.632   3.384  -1.208  0.00  0.00    -0.216 N 
ATOM     20  H   UNL     1       2.733   4.375  -0.896  0.00  0.00    +0.174 HD
BRANCH  19  21
ATOM     21  S   UNL     1       3.986   2.681  -2.035  0.00  0.00    +0.072 S 
ATOM     22  O   UNL     1       3.577   2.329  -3.439  0.00  0.00    -0.150 OA
ATOM     23  O   UNL     1       5.108   3.679  -2.092  0.00  0.00    -0.150 OA
BRANCH  21  24
ATOM     24  C   UNL     1       4.542   1.255  -1.164  0.00  0.00    +0.112 A 
ATOM     25  C   UNL     1       4.695   1.309   0.230  0.00  0.00    +0.032 A 
ATOM     26  C   UNL     1       5.127   0.181   0.936  0.00  0.00    +0.051 A 
ATOM     27  C   UNL     1       5.409  -1.003   0.251  0.00  0.00    +0.162 A 
ATOM     28  O   UNL     1       5.871  -2.134   0.932  0.00  0.00    -0.485 OA
ATOM     29  C   UNL     1       6.414  -3.251   0.224  0.00  0.00    +0.270 C 
ATOM     30  C   UNL     1       5.620  -3.500  -1.065  0.00  0.00    +0.270 C 
ATOM     31  O   UNL     1       5.469  -2.281  -1.796  0.00  0.00    -0.485 OA
ATOM     32  C   UNL     1       5.229  -1.070  -1.138  0.00  0.00    +0.164 A 
ATOM     33  C   UNL     1       4.816   0.060  -1.849  0.00  0.00    +0.078 A 
ENDBRANCH  21  24
ENDBRANCH  19  21
ENDBRANCH   4  19
TORSDOF 6
