REMARK  Name = 
REMARK  9 active torsions:
REMARK  status: ('A' for Active; 'I' for Inactive)
REMARK    1  A    between atoms: C_1  and  O_2
REMARK    2  A    between atoms: O_2  and  C_3
REMARK    3  A    between atoms: C_7  and  C_12
REMARK    4  A    between atoms: C_12  and  C_13
REMARK    5  A    between atoms: N_15  and  C_16
REMARK    6  A    between atoms: C_16  and  C_17
REMARK    7  A    between atoms: C_16  and  C_21
REMARK    8  A    between atoms: C_17  and  C_18
REMARK    9  A    between atoms: C_18  and  O_20
REMARK                            x       y       z     vdW  Elec       q    Type
REMARK                         _______ _______ _______ _____ _____    ______ ____
ROOT
ATOM      1  C   UNL     1      -0.503  -0.155   1.744  0.00  0.00    +0.218 C 
ATOM      2  O   UNL     1      -0.903  -1.348   1.665  0.00  0.00    -0.275 OA
ATOM      3  N   UNL     1      -1.222   0.905   1.089  0.00  0.00    -0.308 N 
ATOM      4  H   UNL     1      -0.974   1.890   1.333  0.00  0.00    +0.149 HD
ENDROOT
BRANCH   1   5
ATOM      5  C   UNL     1       0.758   0.145   2.494  0.00  0.00    +0.134 C 
BRANCH   5  10
ATOM      6  C   UNL     1       3.867   1.599  -1.580  0.00  0.00    +0.124 A 
ATOM      7  C   UNL     1       2.816   2.348  -1.000  0.00  0.00    +0.046 A 
ATOM      8  C   UNL     1       2.096   1.850   0.101  0.00  0.00    +0.015 A 
ATOM      9  C   UNL     1       2.453   0.599   0.598  0.00  0.00    +0.024 A 
ATOM     10  C   UNL     1       1.944  -0.158   1.632  0.00  0.00    +0.007 A 
ATOM     11  C   UNL     1       2.687  -1.334   1.621  0.00  0.00    +0.200 A 
ATOM     12  O   UNL     1       3.594  -1.287   0.662  0.00  0.00    -0.463 OA
ATOM     13  C   UNL     1       3.463  -0.138   0.041  0.00  0.00    +0.139 A 
ATOM     14  C   UNL     1       4.197   0.328  -1.047  0.00  0.00    +0.092 A 
BRANCH   6  16
ATOM     15  C   UNL     1       5.622   1.511  -3.356  0.00  0.00    +0.277 C 
ATOM     16  O   UNL     1       4.548   2.150  -2.675  0.00  0.00    -0.495 OA
ENDBRANCH   6  16
ENDBRANCH   5  10
ENDBRANCH   1   5
BRANCH   3  17
ATOM     17  C   UNL     1      -2.243   0.708   0.047  0.00  0.00    +0.114 C 
BRANCH  17  18
ATOM     18  C   UNL     1      -3.396  -0.182   0.518  0.00  0.00    -0.027 A 
ATOM     19  C   UNL     1      -3.768  -0.191   1.880  0.00  0.00    +0.005 A 
ATOM     20  C   UNL     1      -4.863  -0.940   2.320  0.00  0.00    +0.000 A 
ATOM     21  C   UNL     1      -5.630  -1.661   1.406  0.00  0.00    +0.000 A 
ATOM     22  C   UNL     1      -5.316  -1.618   0.047  0.00  0.00    +0.000 A 
ATOM     23  C   UNL     1      -4.221  -0.871  -0.399  0.00  0.00    +0.005 A 
ENDBRANCH  17  18
BRANCH  17  24
ATOM     24  C   UNL     1      -1.565   0.312  -1.290  0.00  0.00    +0.147 C 
BRANCH  24  25
ATOM     25  C   UNL     1      -0.922  -1.045  -1.282  0.00  0.00    +0.307 C 
ATOM     26  O   UNL     1       0.332  -1.146  -1.201  0.00  0.00    -0.251 OA
BRANCH  25  27
ATOM     27  O   UNL     1      -1.702  -2.193  -1.371  0.00  0.00    -0.481 OA
ATOM     28  H   UNL     1      -1.277  -3.112  -1.363  0.00  0.00    +0.295 HD
ENDBRANCH  25  27
ENDBRANCH  24  25
ENDBRANCH  17  24
ENDBRANCH   3  17
TORSDOF 8
