REMARK  Name = 
REMARK  6 active torsions:
REMARK  status: ('A' for Active; 'I' for Inactive)
REMARK    1  A    between atoms: S_2  and  N_4
REMARK    2  A    between atoms: S_2  and  C_18
REMARK    3  A    between atoms: N_4  and  C_5
REMARK    4  A    between atoms: C_5  and  C_6
REMARK    5  A    between atoms: C_6  and  C_7
REMARK    6  A    between atoms: C_6  and  N_13
REMARK                            x       y       z     vdW  Elec       q    Type
REMARK                         _______ _______ _______ _____ _____    ______ ____
ROOT
ATOM      1  C   UNL     1       0.429  -0.629   0.930  0.00  0.00    +0.129 C 
ENDROOT
BRANCH   1   2
ATOM      2  N   UNL     1       1.026   0.090   2.062  0.00  0.00    -0.188 NA
ATOM      3  H   UNL     1       0.944   1.117   1.884  0.00  0.00    +0.148 HD
BRANCH   2   5
ATOM      4  O   UNL     1       3.343   0.551   3.254  0.00  0.00    -0.153 OA
ATOM      5  S   UNL     1       2.729  -0.247   2.138  0.00  0.00    +0.059 S 
ATOM      6  O   UNL     1       2.944  -1.708   2.424  0.00  0.00    -0.153 OA
BRANCH   5   7
ATOM      7  C   UNL     1       3.505   0.197   0.619  0.00  0.00    +0.108 A 
ATOM      8  C   UNL     1       3.897  -0.789  -0.298  0.00  0.00    +0.029 A 
ATOM      9  C   UNL     1       4.485  -0.424  -1.513  0.00  0.00    +0.005 A 
ATOM     10  C   UNL     1       4.680   0.926  -1.819  0.00  0.00    +0.038 A 
ATOM     11  C   UNL     1       4.284   1.913  -0.911  0.00  0.00    +0.125 A 
ATOM     12  F   UNL     1       4.467   3.223  -1.211  0.00  0.00    -0.205 F 
ATOM     13  C   UNL     1       3.696   1.550   0.305  0.00  0.00    +0.066 A 
ENDBRANCH   5   7
ENDBRANCH   2   5
ENDBRANCH   1   2
BRANCH   1  14
ATOM     14  C   UNL     1      -1.115  -0.501   0.944  0.00  0.00    +0.102 C 
BRANCH  14  15
ATOM     15  C   UNL     1      -1.503   0.969   0.872  0.00  0.00    -0.029 A 
ATOM     16  C   UNL     1      -2.083   1.604   1.984  0.00  0.00    +0.005 A 
ATOM     17  C   UNL     1      -2.426   2.959   1.924  0.00  0.00    +0.000 A 
ATOM     18  C   UNL     1      -2.191   3.690   0.757  0.00  0.00    +0.000 A 
ATOM     19  C   UNL     1      -1.612   3.069  -0.352  0.00  0.00    +0.000 A 
ATOM     20  C   UNL     1      -1.268   1.716  -0.297  0.00  0.00    +0.005 A 
ENDBRANCH  14  15
BRANCH  14  21
ATOM     21  N   UNL     1      -1.726  -1.248  -0.189  0.00  0.00    -0.294 NA
ATOM     22  C   UNL     1      -3.192  -1.148  -0.195  0.00  0.00    +0.085 C 
ATOM     23  C   UNL     1      -3.714  -2.362  -0.942  0.00  0.00    +0.017 C 
ATOM     24  C   UNL     1      -2.605  -3.393  -0.849  0.00  0.00    +0.017 C 
ATOM     25  C   UNL     1      -1.453  -2.691  -0.143  0.00  0.00    +0.085 C 
ENDBRANCH  14  21
ENDBRANCH   1  14
TORSDOF 6
