REMARK  Name = 
REMARK  5 active torsions:
REMARK  status: ('A' for Active; 'I' for Inactive)
REMARK    1  A    between atoms: C_2  and  C_14
REMARK    2  A    between atoms: N_3  and  C_4
REMARK    3  A    between atoms: C_17  and  N_20
REMARK    4  A    between atoms: N_20  and  S_21
REMARK    5  A    between atoms: S_21  and  C_24
REMARK                            x       y       z     vdW  Elec       q    Type
REMARK                         _______ _______ _______ _____ _____    ______ ____
ROOT
ATOM      1  C   UNL     1       0.181  -0.905   0.134  0.00  0.00    +0.037 A 
ATOM      2  C   UNL     1      -0.715  -1.139   1.191  0.00  0.00    +0.015 A 
ATOM      3  C   UNL     1      -2.011  -1.597   0.938  0.00  0.00    +0.025 A 
ATOM      4  C   UNL     1      -2.438  -1.835  -0.381  0.00  0.00    +0.048 A 
ATOM      5  C   UNL     1      -1.536  -1.622  -1.433  0.00  0.00    +0.025 A 
ATOM      6  C   UNL     1      -0.240  -1.164  -1.182  0.00  0.00    +0.015 A 
ENDROOT
BRANCH   1   8
ATOM      7  O   UNL     1       2.087  -0.734   1.526  0.00  0.00    -0.270 OA
ATOM      8  C   UNL     1       1.554  -0.424   0.426  0.00  0.00    +0.248 C 
ATOM      9  N   UNL     1       2.281   0.377  -0.524  0.00  0.00    -0.280 N 
ATOM     10  H   UNL     1       1.862   0.564  -1.461  0.00  0.00    +0.155 HD
BRANCH   9  11
ATOM     11  C   UNL     1       3.596   0.904  -0.275  0.00  0.00    +0.060 A 
ATOM     12  C   UNL     1       3.915   1.488   0.964  0.00  0.00    +0.025 A 
ATOM     13  C   UNL     1       5.185   2.025   1.192  0.00  0.00    +0.003 A 
ATOM     14  C   UNL     1       6.152   1.999   0.185  0.00  0.00    +0.010 A 
ATOM     15  C   UNL     1       5.849   1.440  -1.063  0.00  0.00    +0.002 A 
ATOM     16  C   UNL     1       6.799   1.409  -2.092  0.00  0.00    +0.011 A 
ATOM     17  C   UNL     1       6.470   0.845  -3.326  0.00  0.00    +0.020 A 
ATOM     18  C   UNL     1       5.193   0.316  -3.520  0.00  0.00    +0.111 A 
ATOM     19  N   UNL     1       4.279   0.350  -2.514  0.00  0.00    -0.253 NA
ATOM     20  C   UNL     1       4.564   0.895  -1.298  0.00  0.00    +0.092 A 
ENDBRANCH   9  11
ENDBRANCH   1   8
BRANCH   4  21
ATOM     21  N   UNL     1      -3.767  -2.301  -0.680  0.00  0.00    -0.216 N 
ATOM     22  H   UNL     1      -4.010  -2.540  -1.667  0.00  0.00    +0.174 HD
BRANCH  21  23
ATOM     23  S   UNL     1      -5.048  -2.395   0.487  0.00  0.00    +0.072 S 
ATOM     24  O   UNL     1      -4.708  -3.445   1.507  0.00  0.00    -0.150 OA
ATOM     25  O   UNL     1      -6.323  -2.783  -0.208  0.00  0.00    -0.150 OA
BRANCH  23  26
ATOM     26  C   UNL     1      -5.279  -0.828   1.257  0.00  0.00    +0.108 A 
ATOM     27  C   UNL     1      -5.147   0.348   0.504  0.00  0.00    +0.029 A 
ATOM     28  C   UNL     1      -5.320   1.595   1.113  0.00  0.00    +0.002 A 
ATOM     29  C   UNL     1      -5.627   1.672   2.475  0.00  0.00    +0.000 A 
ATOM     30  C   UNL     1      -5.765   0.502   3.228  0.00  0.00    +0.002 A 
ATOM     31  C   UNL     1      -5.592  -0.746   2.622  0.00  0.00    +0.029 A 
ENDBRANCH  23  26
ENDBRANCH  21  23
ENDBRANCH   4  21
TORSDOF 5
