REMARK  Name = 
REMARK  7 active torsions:
REMARK  status: ('A' for Active; 'I' for Inactive)
REMARK    1  A    between atoms: C_2  and  O_3
REMARK    2  A    between atoms: C_2  and  C_4
REMARK    3  A    between atoms: C_4  and  C_5
REMARK    4  A    between atoms: C_4  and  C_19
REMARK    5  A    between atoms: C_5  and  N_6
REMARK    6  A    between atoms: C_7  and  C_9
REMARK    7  A    between atoms: C_11  and  C_12
REMARK                            x       y       z     vdW  Elec       q    Type
REMARK                         _______ _______ _______ _____ _____    ______ ____
ROOT
ATOM      1  N   UNL     1      -0.375   1.111   0.313  0.00  0.00    -0.314 N 
ATOM      2  C   UNL     1       0.540   0.296  -0.431  0.00  0.00    +0.217 C 
ATOM      3  O   UNL     1       0.124  -0.440  -1.367  0.00  0.00    -0.275 OA
ATOM      4  H   UNL     1       0.002   1.750   1.049  0.00  0.00    +0.149 HD
ENDROOT
BRANCH   2   5
ATOM      5  C   UNL     1       1.993   0.278  -0.067  0.00  0.00    +0.083 C 
ATOM      6  C   UNL     1       2.693   1.618  -0.228  0.00  0.00    +0.022 C 
ATOM      7  C   UNL     1       2.953   0.499  -1.235  0.00  0.00    +0.033 C 
BRANCH   7   8
ATOM      8  C   UNL     1       4.283  -0.200  -1.101  0.00  0.00    -0.025 A 
ATOM      9  C   UNL     1       5.466   0.558  -1.044  0.00  0.00    +0.005 A 
ATOM     10  C   UNL     1       6.708  -0.074  -0.955  0.00  0.00    +0.000 A 
ATOM     11  C   UNL     1       6.786  -1.468  -0.945  0.00  0.00    +0.001 A 
ATOM     12  C   UNL     1       5.621  -2.233  -1.038  0.00  0.00    +0.020 A 
ATOM     13  C   UNL     1       4.370  -1.609  -1.127  0.00  0.00    +0.044 A 
ATOM     14 CL   UNL     1       2.941  -2.622  -1.299  0.00  0.00    -0.083 Cl
ENDBRANCH   7   8
ENDBRANCH   2   5
BRANCH   1  15
ATOM     15  C   UNL     1      -1.813   1.130   0.046  0.00  0.00    +0.123 C 
BRANCH  15  16
ATOM     16  C   UNL     1      -2.493  -0.142   0.590  0.00  0.00    +0.144 C 
BRANCH  16  17
ATOM     17  C   UNL     1      -3.966  -0.159   0.234  0.00  0.00    -0.032 A 
ATOM     18  C   UNL     1      -4.855   0.794   0.771  0.00  0.00    +0.007 A 
ATOM     19  C   UNL     1      -6.210   0.771   0.428  0.00  0.00    +0.038 A 
ATOM     20  C   UNL     1      -6.693  -0.197  -0.457  0.00  0.00    +0.123 A 
ATOM     21  F   UNL     1      -8.007  -0.217  -0.787  0.00  0.00    -0.205 F 
ATOM     22  C   UNL     1      -5.820  -1.142  -1.001  0.00  0.00    +0.038 A 
ATOM     23  C   UNL     1      -4.464  -1.125  -0.660  0.00  0.00    +0.007 A 
ENDBRANCH  16  17
BRANCH  16  25
ATOM     24  O   UNL     1      -2.176  -1.435   2.583  0.00  0.00    -0.250 OA
ATOM     25  C   UNL     1      -2.310  -0.288   2.079  0.00  0.00    +0.314 C 
BRANCH  25  26
ATOM     26  O   UNL     1      -2.334   0.830   2.909  0.00  0.00    -0.480 OA
ATOM     27  H   UNL     1      -2.226   0.736   3.911  0.00  0.00    +0.295 HD
ENDBRANCH  25  26
ENDBRANCH  16  25
ENDBRANCH  15  16
ENDBRANCH   1  15
TORSDOF 7
