REMARK  Name = 
REMARK  8 active torsions:
REMARK  status: ('A' for Active; 'I' for Inactive)
REMARK    1  A    between atoms: C_1  and  C_2
REMARK    2  A    between atoms: C_4  and  C_7
REMARK    3  A    between atoms: C_10  and  S_13
REMARK    4  A    between atoms: S_13  and  N_16
REMARK    5  A    between atoms: N_16  and  C_17
REMARK    6  A    between atoms: N_16  and  C_18
REMARK    7  A    between atoms: C_18  and  C_19
REMARK    8  A    between atoms: N_22  and  C_23
REMARK                            x       y       z     vdW  Elec       q    Type
REMARK                         _______ _______ _______ _____ _____    ______ ____
ROOT
ATOM      1  C   UNL     1       4.075   0.153  -0.150  0.00  0.00    +0.004 A 
ATOM      2  C   UNL     1       3.444  -0.167   1.066  0.00  0.00    +0.012 A 
ATOM      3  C   UNL     1       2.075   0.058   1.238  0.00  0.00    +0.029 A 
ATOM      4  C   UNL     1       1.316   0.610   0.200  0.00  0.00    +0.106 A 
ATOM      5  C   UNL     1       1.933   0.925  -1.016  0.00  0.00    +0.029 A 
ATOM      6  C   UNL     1       3.302   0.701  -1.191  0.00  0.00    +0.012 A 
ENDROOT
BRANCH   1  10
ATOM      7  C   UNL     1       8.755  -1.154   0.764  0.00  0.00    +0.109 C 
ATOM      8  C   UNL     1       7.531  -0.661   0.069  0.00  0.00    +0.193 A 
ATOM      9  N   UNL     1       6.314  -0.619   0.648  0.00  0.00    -0.214 NA
ATOM     10  C   UNL     1       5.529  -0.092  -0.315  0.00  0.00    +0.109 A 
ATOM     11  C   UNL     1       6.301   0.167  -1.433  0.00  0.00    +0.225 A 
ATOM     12  O   UNL     1       7.530  -0.194  -1.158  0.00  0.00    -0.448 OA
ENDBRANCH   1  10
BRANCH   4  13
ATOM     13  S   UNL     1      -0.412   0.869   0.417  0.00  0.00    +0.061 S 
ATOM     14  O   UNL     1      -0.660   1.344   1.823  0.00  0.00    -0.153 OA
ATOM     15  O   UNL     1      -0.881   1.934  -0.537  0.00  0.00    -0.153 OA
BRANCH  13  16
ATOM     16  N   UNL     1      -1.246  -0.640   0.124  0.00  0.00    -0.179 NA
ATOM     17  C   UNL     1      -1.334  -0.928  -1.311  0.00  0.00    +0.131 C 
BRANCH  16  18
ATOM     18  C   UNL     1      -2.534  -0.749   0.844  0.00  0.00    +0.114 C 
BRANCH  18  19
ATOM     19  C   UNL     1      -3.629   0.265   0.407  0.00  0.00    +0.020 C 
ATOM     20  C   UNL     1      -4.692   0.418   1.479  0.00  0.00    +0.021 C 
ATOM     21  C   UNL     1      -5.935   0.809   0.710  0.00  0.00    +0.084 C 
ATOM     22  N   UNL     1      -5.845   0.185  -0.619  0.00  0.00    -0.305 NA
ATOM     23  C   UNL     1      -6.701  -1.010  -0.700  0.00  0.00    +0.104 C 
ATOM     24  C   UNL     1      -4.426  -0.155  -0.836  0.00  0.00    +0.089 C 
ENDBRANCH  18  19
ENDBRANCH  16  18
ENDBRANCH  13  16
ENDBRANCH   4  13
TORSDOF 5
