REMARK  Name = 
REMARK  5 active torsions:
REMARK  status: ('A' for Active; 'I' for Inactive)
REMARK    1  A    between atoms: C_2  and  C_15
REMARK    2  A    between atoms: N_3  and  C_4
REMARK    3  A    between atoms: C_18  and  N_21
REMARK    4  A    between atoms: N_21  and  S_22
REMARK    5  A    between atoms: S_22  and  C_25
REMARK                            x       y       z     vdW  Elec       q    Type
REMARK                         _______ _______ _______ _____ _____    ______ ____
ROOT
ATOM      1  C   UNL     1       0.820  -1.195   0.048  0.00  0.00    +0.037 A 
ATOM      2  C   UNL     1       1.352  -0.628   1.219  0.00  0.00    +0.015 A 
ATOM      3  C   UNL     1       2.701  -0.799   1.542  0.00  0.00    +0.025 A 
ATOM      4  C   UNL     1       3.548  -1.544   0.701  0.00  0.00    +0.048 A 
ATOM      5  C   UNL     1       3.011  -2.125  -0.457  0.00  0.00    +0.025 A 
ATOM      6  C   UNL     1       1.662  -1.956  -0.779  0.00  0.00    +0.015 A 
ENDROOT
BRANCH   1   8
ATOM      7  O   UNL     1      -1.183  -1.943  -0.967  0.00  0.00    -0.270 OA
ATOM      8  C   UNL     1      -0.611  -1.034  -0.306  0.00  0.00    +0.248 C 
ATOM      9  N   UNL     1      -1.352   0.133   0.099  0.00  0.00    -0.280 N 
ATOM     10  H   UNL     1      -0.882   0.861   0.680  0.00  0.00    +0.155 HD
BRANCH   9  11
ATOM     11  C   UNL     1      -2.738   0.339  -0.222  0.00  0.00    +0.056 A 
ATOM     12  C   UNL     1      -3.213   0.104  -1.525  0.00  0.00    +0.074 A 
ATOM     13  C   UNL     1      -4.558   0.325  -1.834  0.00  0.00    +0.164 A 
ATOM     14  O   UNL     1      -5.050   0.059  -3.115  0.00  0.00    -0.485 OA
ATOM     15  C   UNL     1      -6.457   0.013  -3.371  0.00  0.00    +0.270 C 
ATOM     16  C   UNL     1      -7.177   1.106  -2.572  0.00  0.00    +0.270 C 
ATOM     17  O   UNL     1      -6.762   1.075  -1.204  0.00  0.00    -0.485 OA
ATOM     18  C   UNL     1      -5.431   0.821  -0.859  0.00  0.00    +0.164 A 
ATOM     19  C   UNL     1      -4.970   1.061   0.437  0.00  0.00    +0.071 A 
ATOM     20  C   UNL     1      -3.626   0.831   0.758  0.00  0.00    +0.066 A 
ATOM     21 CL   UNL     1      -3.087   1.136   2.404  0.00  0.00    -0.081 Cl
ENDBRANCH   9  11
ENDBRANCH   1   8
BRANCH   4  22
ATOM     22  N   UNL     1       4.942  -1.738   1.000  0.00  0.00    -0.216 N 
ATOM     23  H   UNL     1       5.510  -2.363   0.385  0.00  0.00    +0.174 HD
BRANCH  22  24
ATOM     24  S   UNL     1       5.787  -0.914   2.272  0.00  0.00    +0.079 S 
ATOM     25  O   UNL     1       7.248  -1.260   2.204  0.00  0.00    -0.149 OA
ATOM     26  O   UNL     1       5.239  -1.355   3.600  0.00  0.00    -0.149 OA
BRANCH  24  27
ATOM     27  C   UNL     1       5.608   0.821   2.085  0.00  0.00    +0.146 A 
ATOM     28  C   UNL     1       5.519   1.498   0.879  0.00  0.00    +0.036 A 
ATOM     29  C   UNL     1       5.373   2.881   1.042  0.00  0.00    +0.010 A 
ATOM     30  C   UNL     1       5.349   3.286   2.371  0.00  0.00    +0.047 A 
ATOM     31  S   UNL     1       5.507   1.924   3.346  0.00  0.00    -0.077 S 
ENDBRANCH  24  27
ENDBRANCH  22  24
ENDBRANCH   4  22
TORSDOF 5
