REMARK  Name = 
REMARK  6 active torsions:
REMARK  status: ('A' for Active; 'I' for Inactive)
REMARK    1  A    between atoms: S_2  and  N_4
REMARK    2  A    between atoms: S_2  and  C_29
REMARK    3  A    between atoms: N_4  and  C_5
REMARK    4  A    between atoms: C_8  and  C_11
REMARK    5  A    between atoms: C_14  and  C_15
REMARK    6  A    between atoms: C_21  and  C_23
REMARK                            x       y       z     vdW  Elec       q    Type
REMARK                         _______ _______ _______ _____ _____    ______ ____
ROOT
ATOM      1  C   UNL     1      -0.123   0.459   1.251  0.00  0.00    +0.182 A 
ATOM      2  N   UNL     1      -0.827   1.341   2.008  0.00  0.00    -0.128 NA
ATOM      3  N   UNL     1      -2.120   1.565   1.779  0.00  0.00    -0.145 NA
ATOM      4  C   UNL     1      -2.792   0.922   0.787  0.00  0.00    +0.119 A 
ATOM      5  C   UNL     1      -2.087  -0.028   0.013  0.00  0.00    +0.101 A 
ATOM      6  N   UNL     1      -0.766  -0.218   0.264  0.00  0.00    -0.224 NA
ENDROOT
BRANCH   1  10
ATOM      7  C   UNL     1       4.075  -0.201   1.981  0.00  0.00    +0.048 A 
ATOM      8  C   UNL     1       3.346   0.700   2.771  0.00  0.00    +0.025 A 
ATOM      9  C   UNL     1       1.986   0.916   2.536  0.00  0.00    +0.013 A 
ATOM     10  C   UNL     1       1.320   0.229   1.505  0.00  0.00    +0.021 A 
ATOM     11  C   UNL     1       2.050  -0.681   0.719  0.00  0.00    +0.013 A 
ATOM     12  C   UNL     1       3.410  -0.896   0.955  0.00  0.00    +0.025 A 
BRANCH   7  13
ATOM     13  N   UNL     1       5.476  -0.392   2.248  0.00  0.00    -0.216 N 
ATOM     14  H   UNL     1       5.904   0.081   3.076  0.00  0.00    +0.174 HD
BRANCH  13  16
ATOM     15  O   UNL     1       6.172  -2.727   1.217  0.00  0.00    -0.149 OA
ATOM     16  S   UNL     1       6.551  -1.273   1.208  0.00  0.00    +0.079 S 
ATOM     17  O   UNL     1       7.959  -1.129   1.713  0.00  0.00    -0.149 OA
BRANCH  16  18
ATOM     18  C   UNL     1       6.465  -0.631  -0.421  0.00  0.00    +0.146 A 
ATOM     19  C   UNL     1       6.263   0.699  -0.756  0.00  0.00    +0.036 A 
ATOM     20  C   UNL     1       6.219   0.912  -2.138  0.00  0.00    +0.010 A 
ATOM     21  C   UNL     1       6.387  -0.248  -2.886  0.00  0.00    +0.047 A 
ATOM     22  S   UNL     1       6.588  -1.540  -1.827  0.00  0.00    -0.077 S 
ENDBRANCH  16  18
ENDBRANCH  13  16
ENDBRANCH   7  13
ENDBRANCH   1  10
BRANCH   4  23
ATOM     23  C   UNL     1      -4.205   1.286   0.544  0.00  0.00    +0.004 A 
ATOM     24  C   UNL     1      -4.660   1.599  -0.750  0.00  0.00    +0.010 A 
ATOM     25  C   UNL     1      -5.995   1.954  -0.962  0.00  0.00    +0.001 A 
ATOM     26  C   UNL     1      -6.883   2.017   0.115  0.00  0.00    +0.000 A 
ATOM     27  C   UNL     1      -6.435   1.730   1.407  0.00  0.00    +0.001 A 
ATOM     28  C   UNL     1      -5.100   1.373   1.624  0.00  0.00    +0.010 A 
ENDBRANCH   4  23
BRANCH   5  29
ATOM     29  C   UNL     1      -2.727  -0.862  -1.029  0.00  0.00    +0.003 A 
ATOM     30  C   UNL     1      -2.108  -1.010  -2.281  0.00  0.00    +0.010 A 
ATOM     31  C   UNL     1      -2.696  -1.806  -3.269  0.00  0.00    +0.001 A 
ATOM     32  C   UNL     1      -3.897  -2.472  -3.010  0.00  0.00    +0.000 A 
ATOM     33  C   UNL     1      -4.508  -2.349  -1.760  0.00  0.00    +0.001 A 
ATOM     34  C   UNL     1      -3.924  -1.554  -0.769  0.00  0.00    +0.010 A 
ENDBRANCH   5  29
TORSDOF 6
