REMARK  Name = 
REMARK  7 active torsions:
REMARK  status: ('A' for Active; 'I' for Inactive)
REMARK    1  A    between atoms: C_2  and  C_16
REMARK    2  A    between atoms: N_3  and  C_4
REMARK    3  A    between atoms: C_4  and  C_5
REMARK    4  A    between atoms: C_10  and  O_11
REMARK    5  A    between atoms: O_11  and  C_12
REMARK    6  A    between atoms: C_12  and  C_13
REMARK    7  A    between atoms: C_18  and  C_19
REMARK                            x       y       z     vdW  Elec       q    Type
REMARK                         _______ _______ _______ _____ _____    ______ ____
ROOT
ATOM      1  O   UNL     1      -1.562  -2.155   2.551  0.00  0.00    -0.275 OA
ATOM      2  C   UNL     1      -1.619  -2.381   1.311  0.00  0.00    +0.217 C 
ATOM      3  N   UNL     1      -0.448  -2.234   0.500  0.00  0.00    -0.311 N 
ATOM      4  H   UNL     1      -0.496  -2.530  -0.502  0.00  0.00    +0.149 HD
ENDROOT
BRANCH   2   5
ATOM      5  C   UNL     1      -2.898  -2.885   0.695  0.00  0.00    +0.083 C 
ATOM      6  C   UNL     1      -4.167  -2.316   1.319  0.00  0.00    +0.022 C 
ATOM      7  C   UNL     1      -3.769  -1.897  -0.094  0.00  0.00    +0.033 C 
BRANCH   7   8
ATOM      8  C   UNL     1      -3.250  -0.489  -0.266  0.00  0.00    -0.025 A 
ATOM      9  C   UNL     1      -2.257  -0.231  -1.221  0.00  0.00    +0.007 A 
ATOM     10  C   UNL     1      -1.819   1.075  -1.443  0.00  0.00    +0.020 A 
ATOM     11  C   UNL     1      -2.394   2.121  -0.721  0.00  0.00    +0.111 A 
ATOM     12  N   UNL     1      -3.385   1.865   0.174  0.00  0.00    -0.263 NA
ATOM     13  C   UNL     1      -3.830   0.601   0.407  0.00  0.00    +0.114 A 
ENDBRANCH   7   8
ENDBRANCH   2   5
BRANCH   3  14
ATOM     14  C   UNL     1       0.822  -1.776   1.061  0.00  0.00    +0.143 C 
BRANCH  14  15
ATOM     15  C   UNL     1       1.799  -1.454  -0.042  0.00  0.00    +0.011 A 
ATOM     16  C   UNL     1       2.548  -2.493  -0.617  0.00  0.00    +0.009 A 
ATOM     17  C   UNL     1       3.432  -2.232  -1.665  0.00  0.00    +0.001 A 
ATOM     18  C   UNL     1       3.568  -0.935  -2.157  0.00  0.00    +0.004 A 
ATOM     19  C   UNL     1       2.820   0.107  -1.605  0.00  0.00    +0.046 A 
ATOM     20  C   UNL     1       1.926  -0.139  -0.542  0.00  0.00    +0.125 A 
BRANCH  20  21
ATOM     21  O   UNL     1       1.152   0.885   0.033  0.00  0.00    -0.491 OA
BRANCH  21  22
ATOM     22  C   UNL     1       1.274   2.279  -0.247  0.00  0.00    +0.232 C 
BRANCH  22  23
ATOM     23  C   UNL     1       2.582   2.828   0.336  0.00  0.00    +0.027 C 
ATOM     24  C   UNL     1       2.556   4.298   0.724  0.00  0.00    +0.007 C 
ATOM     25  C   UNL     1       2.518   3.225   1.803  0.00  0.00    +0.007 C 
ENDBRANCH  22  23
ENDBRANCH  21  22
ENDBRANCH  20  21
ENDBRANCH  14  15
ENDBRANCH   3  14
TORSDOF 7
