REMARK  Name = 
REMARK  6 active torsions:
REMARK  status: ('A' for Active; 'I' for Inactive)
REMARK    1  A    between atoms: C_1  and  C_2
REMARK    2  A    between atoms: C_2  and  C_3
REMARK    3  A    between atoms: C_3  and  N_4
REMARK    4  A    between atoms: C_12  and  C_14
REMARK    5  A    between atoms: C_17  and  S_20
REMARK    6  A    between atoms: S_20  and  N_21
REMARK                            x       y       z     vdW  Elec       q    Type
REMARK                         _______ _______ _______ _____ _____    ______ ____
ROOT
ATOM      1  N   UNL     1      -2.932   0.157   0.241  0.00  0.00    -0.300 N 
ATOM      2  C   UNL     1      -1.714   0.970   0.346  0.00  0.00    +0.109 C 
ATOM      3  C   UNL     1      -0.744   0.375   1.373  0.00  0.00    +0.038 C 
ATOM      4  C   UNL     1      -0.469  -1.129   1.183  0.00  0.00    +0.110 C 
ATOM      5  N   UNL     1      -0.403  -1.512  -0.239  0.00  0.00    -0.287 N 
ATOM      6  C   UNL     1      -1.626  -1.650  -1.055  0.00  0.00    +0.204 C 
ATOM      7  C   UNL     1      -2.877  -1.150  -0.374  0.00  0.00    +0.233 C 
ATOM      8  O   UNL     1      -3.901  -1.887  -0.383  0.00  0.00    -0.274 OA
ATOM      9  C   UNL     1       0.840  -1.968  -0.816  0.00  0.00    +0.265 C 
ATOM     10  O   UNL     1       0.823  -2.922  -1.642  0.00  0.00    -0.268 OA
ENDROOT
BRANCH   9  11
ATOM     11  C   UNL     1       2.136  -1.332  -0.488  0.00  0.00    +0.126 A 
ATOM     12  C   UNL     1       3.346  -2.006  -0.720  0.00  0.00    +0.035 A 
ATOM     13  C   UNL     1       4.555  -1.373  -0.421  0.00  0.00    +0.032 A 
ATOM     14  C   UNL     1       4.554  -0.073   0.094  0.00  0.00    +0.123 A 
ATOM     15  C   UNL     1       3.330   0.569   0.308  0.00  0.00    +0.140 A 
ATOM     16  N   UNL     1       2.166  -0.067   0.011  0.00  0.00    -0.248 NA
BRANCH  14  17
ATOM     17  S   UNL     1       6.066   0.738   0.486  0.00  0.00    +0.057 S 
ATOM     18  O   UNL     1       7.174   0.198  -0.376  0.00  0.00    -0.153 OA
ATOM     19  O   UNL     1       6.399   0.500   1.932  0.00  0.00    -0.153 OA
BRANCH  17  20
ATOM     20  N   UNL     1       5.912   2.436   0.200  0.00  0.00    -0.203 NA
ATOM     21  H   UNL     1       6.846   2.865   0.389  0.00  0.00    +0.144 HD
ATOM     22  H   UNL     1       5.725   2.558  -0.821  0.00  0.00    +0.144 HD
ENDBRANCH  17  20
ENDBRANCH  14  17
ENDBRANCH   9  11
BRANCH   1  23
ATOM     23  C   UNL     1      -4.206   0.709   0.726  0.00  0.00    +0.107 C 
BRANCH  23  25
ATOM     24  C   UNL     1      -5.251   0.948  -1.582  0.00  0.00    +0.005 C 
ATOM     25  C   UNL     1      -4.829   1.664  -0.301  0.00  0.00    +0.016 C 
ENDBRANCH  23  25
ENDBRANCH   1  23
TORSDOF 5
