REMARK  Name = 
REMARK  9 active torsions:
REMARK  status: ('A' for Active; 'I' for Inactive)
REMARK    1  A    between atoms: C_1  and  C_2
REMARK    2  A    between atoms: C_2  and  C_3
REMARK    3  A    between atoms: C_9  and  C_11
REMARK    4  A    between atoms: N_13  and  C_14
REMARK    5  A    between atoms: C_14  and  C_15
REMARK    6  A    between atoms: C_14  and  C_21
REMARK    7  A    between atoms: C_21  and  C_22
REMARK    8  A    between atoms: C_21  and  C_23
REMARK    9  A    between atoms: C_23  and  O_25
REMARK                            x       y       z     vdW  Elec       q    Type
REMARK                         _______ _______ _______ _____ _____    ______ ____
ROOT
ATOM      1  C   UNL     1       0.259  -0.782  -0.793  0.00  0.00    +0.218 C 
ATOM      2  O   UNL     1       0.503  -1.993  -1.051  0.00  0.00    -0.275 OA
ATOM      3  N   UNL     1       1.313   0.092  -0.358  0.00  0.00    -0.307 N 
ATOM      4  H   UNL     1       1.067   1.082  -0.129  0.00  0.00    +0.149 HD
ENDROOT
BRANCH   1  11
ATOM      5  C   UNL     1      -3.996   0.245   1.520  0.00  0.00    +0.215 C 
ATOM      6  O   UNL     1      -3.534  -0.047   2.657  0.00  0.00    -0.276 OA
ATOM      7  N   UNL     1      -3.319  -0.216   0.330  0.00  0.00    -0.301 N 
ATOM      8  C   UNL     1      -4.080  -0.657  -0.850  0.00  0.00    +0.108 C 
ATOM      9  C   UNL     1      -3.333  -0.296  -2.137  0.00  0.00    +0.020 C 
ATOM     10  C   UNL     1      -1.896  -0.822  -2.097  0.00  0.00    +0.016 C 
ATOM     11  C   UNL     1      -1.157  -0.271  -0.865  0.00  0.00    +0.092 C 
ATOM     12  C   UNL     1      -1.911  -0.632   0.424  0.00  0.00    +0.120 C 
BRANCH   5  14
ATOM     13  C   UNL     1      -6.486   0.241   1.698  0.00  0.00    +0.013 C 
ATOM     14  C   UNL     1      -5.240   1.086   1.451  0.00  0.00    +0.092 C 
ENDBRANCH   5  14
ENDBRANCH   1  11
BRANCH   3  15
ATOM     15  C   UNL     1       2.670  -0.378  -0.050  0.00  0.00    +0.117 C 
BRANCH  15  16
ATOM     16  C   UNL     1       3.678   0.462  -0.814  0.00  0.00    -0.026 A 
ATOM     17  C   UNL     1       3.760   1.855  -0.618  0.00  0.00    +0.005 A 
ATOM     18  C   UNL     1       4.697   2.615  -1.324  0.00  0.00    +0.000 A 
ATOM     19  C   UNL     1       5.560   1.997  -2.232  0.00  0.00    +0.000 A 
ATOM     20  C   UNL     1       5.488   0.617  -2.435  0.00  0.00    +0.000 A 
ATOM     21  C   UNL     1       4.553  -0.148  -1.731  0.00  0.00    +0.005 A 
ENDBRANCH  15  16
BRANCH  15  22
ATOM     22  C   UNL     1       2.914  -0.335   1.482  0.00  0.00    +0.119 C 
ATOM     23  C   UNL     1       4.313  -0.850   1.855  0.00  0.00    +0.021 C 
BRANCH  22  24
ATOM     24  C   UNL     1       1.867  -1.138   2.208  0.00  0.00    +0.310 C 
ATOM     25  O   UNL     1       1.807  -2.389   2.063  0.00  0.00    -0.251 OA
BRANCH  24  26
ATOM     26  O   UNL     1       0.942  -0.491   3.022  0.00  0.00    -0.480 OA
ATOM     27  H   UNL     1       0.219  -1.012   3.503  0.00  0.00    +0.295 HD
ENDBRANCH  24  26
ENDBRANCH  22  24
ENDBRANCH  15  22
ENDBRANCH   3  15
TORSDOF 7
