REMARK  Name = 
REMARK  8 active torsions:
REMARK  status: ('A' for Active; 'I' for Inactive)
REMARK    1  A    between atoms: C_1  and  O_2
REMARK    2  A    between atoms: O_2  and  C_3
REMARK    3  A    between atoms: C_6  and  C_9
REMARK    4  A    between atoms: C_9  and  C_10
REMARK    5  A    between atoms: C_9  and  N_14
REMARK    6  A    between atoms: C_10  and  C_11
REMARK    7  A    between atoms: C_11  and  O_13
REMARK    8  A    between atoms: C_15  and  C_17
REMARK                            x       y       z     vdW  Elec       q    Type
REMARK                         _______ _______ _______ _____ _____    ______ ____
ROOT
ATOM      1  C   UNL     1       0.216  -1.572  -0.635  0.00  0.00    +0.114 C 
ENDROOT
BRANCH   1   5
ATOM      2  C   UNL     1       3.479   1.220  -0.046  0.00  0.00    +0.120 A 
ATOM      3  C   UNL     1       3.212   0.695  -1.324  0.00  0.00    +0.046 A 
ATOM      4  C   UNL     1       2.158  -0.204  -1.512  0.00  0.00    +0.009 A 
ATOM      5  C   UNL     1       1.349  -0.589  -0.430  0.00  0.00    -0.026 A 
ATOM      6  C   UNL     1       1.625  -0.070   0.847  0.00  0.00    +0.009 A 
ATOM      7  C   UNL     1       2.679   0.829   1.033  0.00  0.00    +0.046 A 
BRANCH   2   9
ATOM      8  C   UNL     1       5.413   2.609  -0.809  0.00  0.00    +0.277 C 
ATOM      9  O   UNL     1       4.523   2.126   0.193  0.00  0.00    -0.495 OA
ENDBRANCH   2   9
ENDBRANCH   1   5
BRANCH   1  10
ATOM     10  N   UNL     1      -1.015  -1.051  -0.029  0.00  0.00    -0.304 N 
ATOM     11  C   UNL     1      -1.716   0.073  -0.584  0.00  0.00    +0.247 C 
ATOM     12  O   UNL     1      -1.411   0.496  -1.732  0.00  0.00    -0.270 OA
ATOM     13  H   UNL     1      -1.409  -1.522   0.817  0.00  0.00    +0.150 HD
BRANCH  11  14
ATOM     14  C   UNL     1      -2.817   0.726   0.160  0.00  0.00    +0.075 A 
ATOM     15  C   UNL     1      -3.912   1.255  -0.545  0.00  0.00    +0.016 A 
ATOM     16  C   UNL     1      -4.963   1.875   0.137  0.00  0.00    +0.004 A 
ATOM     17  C   UNL     1      -4.927   1.982   1.529  0.00  0.00    +0.041 A 
ATOM     18  C   UNL     1      -3.837   1.477   2.241  0.00  0.00    +0.159 A 
ATOM     19  F   UNL     1      -3.797   1.603   3.591  0.00  0.00    -0.202 F 
ATOM     20  C   UNL     1      -2.780   0.854   1.564  0.00  0.00    +0.170 A 
ATOM     21  F   UNL     1      -1.708   0.427   2.278  0.00  0.00    -0.202 F 
ENDBRANCH  11  14
ENDBRANCH   1  10
BRANCH   1  22
ATOM     22  C   UNL     1       0.594  -2.941  -0.040  0.00  0.00    +0.147 C 
BRANCH  22  23
ATOM     23  C   UNL     1      -0.432  -3.981  -0.371  0.00  0.00    +0.307 C 
ATOM     24  O   UNL     1      -0.425  -4.537  -1.502  0.00  0.00    -0.251 OA
BRANCH  23  25
ATOM     25  O   UNL     1      -1.415  -4.308   0.558  0.00  0.00    -0.481 OA
ATOM     26  H   UNL     1      -2.124  -4.998   0.343  0.00  0.00    +0.295 HD
ENDBRANCH  23  25
ENDBRANCH  22  23
ENDBRANCH   1  22
TORSDOF 7
