REMARK  Name = 
REMARK  10 active torsions:
REMARK  status: ('A' for Active; 'I' for Inactive)
REMARK    1  A    between atoms: C_1  and  C_2
REMARK    2  A    between atoms: C_6  and  C_8
REMARK    3  A    between atoms: C_10  and  C_20
REMARK    4  A    between atoms: C_13  and  C_15
REMARK    5  A    between atoms: C_15  and  C_16
REMARK    6  A    between atoms: C_16  and  C_17
REMARK    7  A    between atoms: C_17  and  O_19
REMARK    8  A    between atoms: C_25  and  N_26
REMARK    9  A    between atoms: N_26  and  S_27
REMARK   10  A    between atoms: S_27  and  C_28
REMARK                            x       y       z     vdW  Elec       q    Type
REMARK                         _______ _______ _______ _____ _____    ______ ____
ROOT
ATOM      1  C   UNL     1      -0.918  -0.439  -0.322  0.00  0.00    +0.137 C 
ATOM      2  C   UNL     1       0.592  -0.754  -0.338  0.00  0.00    +0.087 C 
ATOM      3  C   UNL     1       1.135   0.321  -1.231  0.00  0.00    +0.071 C 
ATOM      4  N   UNL     1       0.218   1.105  -1.682  0.00  0.00    -0.181 NA
ATOM      5  N   UNL     1      -1.036   0.701  -1.228  0.00  0.00    -0.185 N 
ATOM      6  C   UNL     1      -2.248   1.276  -1.742  0.00  0.00    +0.236 C 
ATOM      7  O   UNL     1      -2.173   2.262  -2.524  0.00  0.00    -0.274 OA
ENDROOT
BRANCH   1  13
ATOM      8  C   UNL     1      -3.622  -1.555   3.789  0.00  0.00    +0.044 C 
ATOM      9  C   UNL     1      -2.711  -0.620   3.051  0.00  0.00    -0.050 A 
ATOM     10  C   UNL     1      -2.252   0.552   3.669  0.00  0.00    +0.003 A 
ATOM     11  C   UNL     1      -1.378   1.407   2.994  0.00  0.00    +0.001 A 
ATOM     12  C   UNL     1      -0.950   1.095   1.702  0.00  0.00    +0.005 A 
ATOM     13  C   UNL     1      -1.395  -0.080   1.070  0.00  0.00    -0.024 A 
ATOM     14  C   UNL     1      -2.263  -0.942   1.761  0.00  0.00    +0.009 A 
ENDBRANCH   1  13
BRANCH   3  15
ATOM     15  C   UNL     1       2.571   0.585  -1.452  0.00  0.00    +0.020 A 
ATOM     16  C   UNL     1       3.060   1.879  -1.208  0.00  0.00    +0.011 A 
ATOM     17  C   UNL     1       4.423   2.156  -1.325  0.00  0.00    +0.001 A 
ATOM     18  C   UNL     1       5.311   1.147  -1.692  0.00  0.00    +0.002 A 
ATOM     19  C   UNL     1       4.838  -0.139  -1.960  0.00  0.00    +0.025 A 
ATOM     20  C   UNL     1       3.468  -0.435  -1.848  0.00  0.00    +0.057 A 
BRANCH  20  21
ATOM     21  N   UNL     1       2.980  -1.730  -2.232  0.00  0.00    -0.220 N 
ATOM     22  H   UNL     1       2.047  -1.812  -2.692  0.00  0.00    +0.173 HD
BRANCH  21  23
ATOM     23  S   UNL     1       3.830  -3.197  -1.873  0.00  0.00    +0.040 S 
ATOM     24  C   UNL     1       4.450  -3.154  -0.205  0.00  0.00    +0.218 C 
ATOM     25  O   UNL     1       2.880  -4.354  -1.997  0.00  0.00    -0.155 OA
ATOM     26  O   UNL     1       4.961  -3.382  -2.843  0.00  0.00    -0.155 OA
ENDBRANCH  21  23
ENDBRANCH  20  21
ENDBRANCH   3  15
BRANCH   6  27
ATOM     27  C   UNL     1      -3.607   0.700  -1.431  0.00  0.00    +0.109 C 
BRANCH  27  28
ATOM     28  C   UNL     1      -4.573   1.757  -0.881  0.00  0.00    +0.129 C 
BRANCH  28  29
ATOM     29  C   UNL     1      -4.155   2.235   0.476  0.00  0.00    +0.305 C 
ATOM     30  O   UNL     1      -4.585   1.656   1.509  0.00  0.00    -0.251 OA
BRANCH  29  31
ATOM     31  O   UNL     1      -3.272   3.304   0.594  0.00  0.00    -0.481 OA
ATOM     32  H   UNL     1      -2.967   3.626   1.504  0.00  0.00    +0.295 HD
ENDBRANCH  29  31
ENDBRANCH  28  29
ENDBRANCH  27  28
ENDBRANCH   6  27
TORSDOF 8
