REMARK  Name = 
REMARK  9 active torsions:
REMARK  status: ('A' for Active; 'I' for Inactive)
REMARK    1  A    between atoms: C_1  and  O_2
REMARK    2  A    between atoms: O_2  and  C_3
REMARK    3  A    between atoms: C_3  and  C_5
REMARK    4  A    between atoms: C_5  and  C_6
REMARK    5  A    between atoms: C_6  and  N_7
REMARK    6  A    between atoms: C_6  and  C_20
REMARK    7  A    between atoms: C_8  and  C_10
REMARK    8  A    between atoms: C_15  and  O_16
REMARK    9  A    between atoms: O_16  and  C_17
REMARK                            x       y       z     vdW  Elec       q    Type
REMARK                         _______ _______ _______ _____ _____    ______ ____
ROOT
ATOM      1  C   UNL     1       0.435  -0.955  -0.753  0.00  0.00    +0.117 C 
ENDROOT
BRANCH   1   2
ATOM      2  C   UNL     1       1.286   0.018  -1.556  0.00  0.00    +0.009 A 
ATOM      3  C   UNL     1       1.636   1.271  -1.014  0.00  0.00    +0.011 A 
ATOM      4  C   UNL     1       2.442   2.157  -1.734  0.00  0.00    +0.039 A 
ATOM      5  C   UNL     1       2.914   1.802  -2.999  0.00  0.00    +0.126 A 
ATOM      6  F   UNL     1       3.699   2.662  -3.695  0.00  0.00    -0.205 F 
ATOM      7  C   UNL     1       2.583   0.560  -3.546  0.00  0.00    +0.077 A 
ATOM      8  C   UNL     1       1.776  -0.331  -2.832  0.00  0.00    +0.131 A 
ATOM      9  F   UNL     1       1.482  -1.535  -3.385  0.00  0.00    -0.205 F 
ENDBRANCH   1   2
BRANCH   1  10
ATOM     10  N   UNL     1      -0.841  -0.332  -0.379  0.00  0.00    -0.304 N 
ATOM     11  C   UNL     1      -1.939  -1.088   0.154  0.00  0.00    +0.248 C 
ATOM     12  O   UNL     1      -1.961  -2.343   0.021  0.00  0.00    -0.270 OA
ATOM     13  H   UNL     1      -0.987   0.690  -0.545  0.00  0.00    +0.150 HD
BRANCH  11  14
ATOM     14  C   UNL     1      -3.068  -0.408   0.829  0.00  0.00    +0.078 A 
ATOM     15  C   UNL     1      -4.371  -0.909   0.660  0.00  0.00    +0.017 A 
ATOM     16  C   UNL     1      -5.457  -0.282   1.271  0.00  0.00    +0.001 A 
ATOM     17  C   UNL     1      -5.256   0.847   2.065  0.00  0.00    +0.004 A 
ATOM     18  C   UNL     1      -3.967   1.346   2.260  0.00  0.00    +0.046 A 
ATOM     19  C   UNL     1      -2.858   0.720   1.655  0.00  0.00    +0.139 A 
BRANCH  19  20
ATOM     20  O   UNL     1      -1.546   1.172   1.876  0.00  0.00    -0.433 OA
BRANCH  20  21
ATOM     21  C   UNL     1      -1.190   2.312   2.652  0.00  0.00    +0.541 C 
ATOM     22  F   UNL     1       0.188   2.403   2.711  0.00  0.00    -0.166 F 
ATOM     23  F   UNL     1      -1.691   3.458   2.063  0.00  0.00    -0.166 F 
ENDBRANCH  20  21
ENDBRANCH  19  20
ENDBRANCH  11  14
ENDBRANCH   1  10
BRANCH   1  24
ATOM     24  C   UNL     1       1.181  -1.435   0.509  0.00  0.00    +0.147 C 
BRANCH  24  25
ATOM     25  C   UNL     1       2.448  -2.152   0.156  0.00  0.00    +0.309 C 
ATOM     26  O   UNL     1       2.418  -3.385  -0.104  0.00  0.00    -0.251 OA
BRANCH  25  28
ATOM     27  C   UNL     1       4.866  -2.026  -0.345  0.00  0.00    +0.280 C 
ATOM     28  O   UNL     1       3.642  -1.432   0.067  0.00  0.00    -0.468 OA
ENDBRANCH  25  28
ENDBRANCH  24  25
ENDBRANCH   1  24
TORSDOF 8
