REMARK  Name = 
REMARK  9 active torsions:
REMARK  status: ('A' for Active; 'I' for Inactive)
REMARK    1  A    between atoms: C_2  and  C_3
REMARK    2  A    between atoms: C_8  and  C_9
REMARK    3  A    between atoms: C_9  and  N_10
REMARK    4  A    between atoms: N_10  and  C_11
REMARK    5  A    between atoms: N_10  and  C_19
REMARK    6  A    between atoms: C_11  and  C_12
REMARK    7  A    between atoms: C_12  and  C_13
REMARK    8  A    between atoms: C_19  and  C_20
REMARK    9  A    between atoms: C_20  and  O_22
REMARK                            x       y       z     vdW  Elec       q    Type
REMARK                         _______ _______ _______ _____ _____    ______ ____
ROOT
ATOM      1 CL   UNL     1       0.688   0.000   0.000  0.00  0.00    -0.145 Cl
ATOM      2  H   UNL     1      -0.688   0.000   0.000  0.00  0.00    +0.145 HD
ENDROOT
TORSDOF 0
REMARK  Name = 
REMARK  9 active torsions:
REMARK  status: ('A' for Active; 'I' for Inactive)
REMARK    1  A    between atoms: C_2  and  C_3
REMARK    2  A    between atoms: C_8  and  C_9
REMARK    3  A    between atoms: C_9  and  N_10
REMARK    4  A    between atoms: N_10  and  C_11
REMARK    5  A    between atoms: N_10  and  C_19
REMARK    6  A    between atoms: C_11  and  C_12
REMARK    7  A    between atoms: C_12  and  C_13
REMARK    8  A    between atoms: C_19  and  C_20
REMARK    9  A    between atoms: C_20  and  O_22
REMARK                            x       y       z     vdW  Elec       q    Type
REMARK                         _______ _______ _______ _____ _____    ______ ____
ROOT
ATOM      1  N   UNL     1      -0.686   0.893   1.235  0.00  0.00    -0.288 NA
ENDROOT
BRANCH   1   2
ATOM      2  C   UNL     1      -1.464   1.581   0.181  0.00  0.00    +0.120 C 
BRANCH   2   9
ATOM      3  C   UNL     1      -3.746  -0.187   1.018  0.00  0.00    +0.044 C 
ATOM      4  C   UNL     1      -3.170  -0.249  -0.373  0.00  0.00    -0.046 A 
ATOM      5  C   UNL     1      -3.707  -1.165  -1.296  0.00  0.00    +0.003 A 
ATOM      6  C   UNL     1      -3.193  -1.252  -2.591  0.00  0.00    +0.000 A 
ATOM      7  C   UNL     1      -2.139  -0.427  -2.983  0.00  0.00    +0.000 A 
ATOM      8  C   UNL     1      -1.597   0.491  -2.082  0.00  0.00    +0.005 A 
ATOM      9  C   UNL     1      -2.103   0.595  -0.774  0.00  0.00    -0.030 A 
ENDBRANCH   2   9
ENDBRANCH   1   2
BRANCH   1  10
ATOM     10  C   UNL     1       0.453   0.089   0.713  0.00  0.00    +0.090 C 
BRANCH  10  11
ATOM     11  C   UNL     1       1.581   0.912   0.057  0.00  0.00    +0.050 C 
BRANCH  11  12
ATOM     12  C   UNL     1       2.637  -0.008  -0.496  0.00  0.00    -0.046 A 
ATOM     13  C   UNL     1       2.499  -0.547  -1.787  0.00  0.00    +0.003 A 
ATOM     14  C   UNL     1       3.461  -1.429  -2.288  0.00  0.00    +0.000 A 
ATOM     15  C   UNL     1       4.560  -1.788  -1.502  0.00  0.00    +0.000 A 
ATOM     16  C   UNL     1       4.696  -1.268  -0.211  0.00  0.00    +0.000 A 
ATOM     17  C   UNL     1       3.736  -0.386   0.294  0.00  0.00    +0.003 A 
ENDBRANCH  11  12
ENDBRANCH  10  11
ENDBRANCH   1  10
BRANCH   1  18
ATOM     18  C   UNL     1      -0.312   1.832   2.314  0.00  0.00    +0.205 C 
BRANCH  18  19
ATOM     19  C   UNL     1       0.233   1.107   3.506  0.00  0.00    +0.319 C 
ATOM     20  O   UNL     1       1.409   1.329   3.899  0.00  0.00    -0.250 OA
BRANCH  19  21
ATOM     21  O   UNL     1      -0.562   0.181   4.175  0.00  0.00    -0.480 OA
ATOM     22  H   UNL     1      -0.206  -0.326   4.977  0.00  0.00    +0.295 HD
ENDBRANCH  19  21
ENDBRANCH  18  19
ENDBRANCH   1  18
TORSDOF 8
