REMARK  Name = 
REMARK  10 active torsions:
REMARK  status: ('A' for Active; 'I' for Inactive)
REMARK    1  A    between atoms: C_1  and  O_2
REMARK    2  A    between atoms: O_2  and  C_3
REMARK    3  A    between atoms: C_6  and  C_7
REMARK    4  A    between atoms: C_7  and  O_9
REMARK    5  A    between atoms: C_10  and  O_12
REMARK    6  A    between atoms: O_12  and  C_13
REMARK    7  A    between atoms: C_13  and  C_14
REMARK    8  A    between atoms: N_16  and  C_17
REMARK    9  A    between atoms: C_17  and  C_18
REMARK   10  A    between atoms: C_17  and  C_19
REMARK                            x       y       z     vdW  Elec       q    Type
REMARK                         _______ _______ _______ _____ _____    ______ ____
ROOT
ATOM      1  O   UNL     1       1.527  -2.155   0.457  0.00  0.00    -0.482 OA
ENDROOT
BRANCH   1   6
ATOM      2  C   UNL     1       3.337   1.056  -0.156  0.00  0.00    +0.124 A 
ATOM      3  C   UNL     1       4.285   0.634  -1.100  0.00  0.00    +0.046 A 
ATOM      4  C   UNL     1       4.319  -0.697  -1.516  0.00  0.00    +0.022 A 
ATOM      5  C   UNL     1       3.408  -1.638  -1.005  0.00  0.00    +0.101 A 
ATOM      6  C   UNL     1       2.445  -1.219  -0.055  0.00  0.00    +0.139 A 
ATOM      7  C   UNL     1       2.428   0.129   0.360  0.00  0.00    +0.092 A 
BRANCH   2   9
ATOM      8  C   UNL     1       4.120   3.431  -0.144  0.00  0.00    +0.277 C 
ATOM      9  O   UNL     1       3.264   2.382   0.296  0.00  0.00    -0.495 OA
ENDBRANCH   2   9
BRANCH   5  10
ATOM     10  C   UNL     1       3.483  -3.044  -1.484  0.00  0.00    +0.340 C 
ATOM     11  O   UNL     1       2.682  -3.919  -1.059  0.00  0.00    -0.245 OA
BRANCH  10  12
ATOM     12  O   UNL     1       4.449  -3.413  -2.417  0.00  0.00    -0.477 OA
ATOM     13  H   UNL     1       4.512  -4.367  -2.753  0.00  0.00    +0.295 HD
ENDBRANCH  10  12
ENDBRANCH   5  10
ENDBRANCH   1   6
BRANCH   1  14
ATOM     14  C   UNL     1       0.439  -1.862   1.334  0.00  0.00    +0.324 C 
BRANCH  14  15
ATOM     15  C   UNL     1      -0.621  -1.081   0.616  0.00  0.00    +0.251 C 
ATOM     16  O   UNL     1      -1.100  -1.535  -0.458  0.00  0.00    -0.272 OA
ATOM     17  N   UNL     1      -1.092   0.165   1.150  0.00  0.00    -0.306 N 
ATOM     18  H   UNL     1      -0.700   0.499   2.060  0.00  0.00    +0.149 HD
BRANCH  17  19
ATOM     19  C   UNL     1      -2.086   0.983   0.449  0.00  0.00    +0.100 C 
ATOM     20  C   UNL     1      -2.145   2.392   1.049  0.00  0.00    +0.033 C 
BRANCH  19  21
ATOM     21  C   UNL     1      -3.450   0.330   0.513  0.00  0.00    -0.027 A 
ATOM     22  C   UNL     1      -4.230   0.206  -0.651  0.00  0.00    +0.005 A 
ATOM     23  C   UNL     1      -5.496  -0.383  -0.593  0.00  0.00    +0.000 A 
ATOM     24  C   UNL     1      -5.998  -0.848   0.625  0.00  0.00    +0.000 A 
ATOM     25  C   UNL     1      -5.236  -0.722   1.789  0.00  0.00    +0.000 A 
ATOM     26  C   UNL     1      -3.969  -0.133   1.737  0.00  0.00    +0.005 A 
ENDBRANCH  19  21
ENDBRANCH  17  19
ENDBRANCH  14  15
ENDBRANCH   1  14
TORSDOF 8
