REMARK  Name = 
REMARK  4 active torsions:
REMARK  status: ('A' for Active; 'I' for Inactive)
REMARK    1  A    between atoms: N_1  and  S_2
REMARK    2  A    between atoms: S_2  and  C_5
REMARK    3  A    between atoms: C_9  and  N_11
REMARK    4  A    between atoms: C_12  and  C_14
REMARK                            x       y       z     vdW  Elec       q    Type
REMARK                         _______ _______ _______ _____ _____    ______ ____
ROOT
ATOM      1  C   UNL     1       4.091  -0.184   0.035  0.00  0.00    +0.107 A 
ATOM      2  C   UNL     1       4.666  -1.420  -0.284  0.00  0.00    +0.028 A 
ATOM      3  C   UNL     1       3.860  -2.483  -0.697  0.00  0.00    +0.004 A 
ATOM      4  C   UNL     1       2.477  -2.317  -0.797  0.00  0.00    +0.023 A 
ATOM      5  C   UNL     1       1.886  -1.081  -0.495  0.00  0.00    +0.036 A 
ATOM      6  C   UNL     1       2.701  -0.020  -0.059  0.00  0.00    +0.051 A 
ENDROOT
BRANCH   5   7
ATOM      7  N   UNL     1       0.457  -0.942  -0.581  0.00  0.00    -0.281 N 
ATOM      8  C   UNL     1      -0.207   0.286  -0.923  0.00  0.00    +0.255 C 
ATOM      9  O   UNL     1       0.429   1.207  -1.505  0.00  0.00    -0.269 OA
ATOM     10  H   UNL     1      -0.122  -1.807  -0.490  0.00  0.00    +0.155 HD
BRANCH   8  11
ATOM     11  C   UNL     1      -1.641   0.473  -0.644  0.00  0.00    +0.075 A 
ATOM     12  C   UNL     1      -2.458  -0.391   0.099  0.00  0.00    +0.024 A 
ATOM     13  C   UNL     1      -3.759   0.100   0.183  0.00  0.00    -0.036 A 
ATOM     14  C   UNL     1      -4.972  -0.396   0.861  0.00  0.00    +0.036 C 
ATOM     15  C   UNL     1      -6.025   0.698   0.536  0.00  0.00    +0.010 C 
ATOM     16  C   UNL     1      -5.332   1.796  -0.311  0.00  0.00    +0.043 C 
ATOM     17  C   UNL     1      -3.964   1.271  -0.442  0.00  0.00    -0.006 A 
ATOM     18  S   UNL     1      -2.551   1.820  -1.157  0.00  0.00    -0.088 S 
ENDBRANCH   8  11
ENDBRANCH   5   7
BRANCH   1  19
ATOM     19  S   UNL     1       5.103   1.145   0.591  0.00  0.00    +0.056 S 
ATOM     20  O   UNL     1       6.465   1.045  -0.036  0.00  0.00    -0.153 OA
ATOM     21  O   UNL     1       4.484   2.456   0.193  0.00  0.00    -0.153 OA
BRANCH  19  22
ATOM     22  N   UNL     1       5.248   1.075   2.312  0.00  0.00    -0.204 NA
ATOM     23  H   UNL     1       5.904   1.837   2.595  0.00  0.00    +0.144 HD
ATOM     24  H   UNL     1       5.719   0.171   2.542  0.00  0.00    +0.144 HD
ENDBRANCH  19  22
ENDBRANCH   1  19
TORSDOF 4
