REMARK  Name = 
REMARK  3 active torsions:
REMARK  status: ('A' for Active; 'I' for Inactive)
REMARK    1  A    between atoms: S_2  and  N_4
REMARK    2  A    between atoms: S_2  and  N_10
REMARK    3  A    between atoms: C_14  and  C_16
REMARK                            x       y       z     vdW  Elec       q    Type
REMARK                         _______ _______ _______ _____ _____    ______ ____
ROOT
ATOM      1  N   UNL     1       0.175   0.979   0.257  0.00  0.00    -0.166 NA
ATOM      2  C   UNL     1       0.130   1.447  -1.137  0.00  0.00    +0.110 C 
ATOM      3  C   UNL     1       1.504   1.999  -1.562  0.00  0.00    +0.018 C 
ATOM      4  C   UNL     1       2.661   1.370  -0.767  0.00  0.00    +0.011 C 
ATOM      5  C   UNL     1       2.353  -0.096  -0.422  0.00  0.00    +0.038 C 
ATOM      6  C   UNL     1       1.038  -0.215   0.396  0.00  0.00    +0.118 C 
ENDROOT
BRANCH   5   7
ATOM      7  C   UNL     1       3.508  -0.739   0.299  0.00  0.00    -0.006 A 
ATOM      8  C   UNL     1       4.153  -1.912  -0.043  0.00  0.00    +0.138 A 
ATOM      9  N   UNL     1       5.107  -2.174   0.872  0.00  0.00    -0.182 NA
ATOM     10  N   UNL     1       5.078  -1.208   1.777  0.00  0.00    -0.284 N 
ATOM     11  C   UNL     1       4.117  -0.321   1.465  0.00  0.00    +0.108 A 
ATOM     12  H   UNL     1       5.710  -1.162   2.606  0.00  0.00    +0.188 HD
ENDBRANCH   5   7
BRANCH   1  14
ATOM     13  O   UNL     1      -1.343   0.126   2.243  0.00  0.00    -0.141 OA
ATOM     14  S   UNL     1      -1.435   0.606   0.820  0.00  0.00    +0.100 S 
ATOM     15  O   UNL     1      -2.266   1.861   0.802  0.00  0.00    -0.141 OA
BRANCH  14  16
ATOM     16  N   UNL     1      -2.148  -0.630  -0.208  0.00  0.00    -0.162 NA
ATOM     17  C   UNL     1      -3.085  -0.063  -1.200  0.00  0.00    +0.138 C 
ATOM     18  C   UNL     1      -4.531   0.016  -0.667  0.00  0.00    +0.177 C 
ATOM     19  O   UNL     1      -4.547   0.022   0.745  0.00  0.00    -0.377 OA
ATOM     20  C   UNL     1      -4.101  -1.228   1.238  0.00  0.00    +0.177 C 
ATOM     21  C   UNL     1      -2.786  -1.702   0.575  0.00  0.00    +0.138 C 
ENDBRANCH  14  16
ENDBRANCH   1  14
TORSDOF 3
