REMARK  Name = 
REMARK  4 active torsions:
REMARK  status: ('A' for Active; 'I' for Inactive)
REMARK    1  A    between atoms: C_1  and  C_2
REMARK    2  A    between atoms: C_5  and  S_7
REMARK    3  A    between atoms: S_7  and  N_10
REMARK    4  A    between atoms: N_10  and  C_11
REMARK                            x       y       z     vdW  Elec       q    Type
REMARK                         _______ _______ _______ _____ _____    ______ ____
ROOT
ATOM      1  N   UNL     1       0.092  -2.813  -0.728  0.00  0.00    -0.216 N 
ATOM      2  H   UNL     1      -0.072  -3.554  -1.445  0.00  0.00    +0.174 HD
ENDROOT
BRANCH   1   3
ATOM      3  C   UNL     1       0.749  -1.594  -1.121  0.00  0.00    +0.052 A 
ATOM      4  C   UNL     1       1.019  -1.372  -2.483  0.00  0.00    +0.028 A 
ATOM      5  C   UNL     1       1.654  -0.198  -2.901  0.00  0.00    +0.051 A 
ATOM      6  C   UNL     1       2.030   0.762  -1.960  0.00  0.00    +0.162 A 
ATOM      7  O   UNL     1       2.691   1.931  -2.353  0.00  0.00    -0.485 OA
ATOM      8  C   UNL     1       3.321   2.781  -1.392  0.00  0.00    +0.270 C 
ATOM      9  C   UNL     1       2.470   2.866  -0.118  0.00  0.00    +0.270 C 
ATOM     10  O   UNL     1       2.098   1.556   0.317  0.00  0.00    -0.485 OA
ATOM     11  C   UNL     1       1.749   0.562  -0.603  0.00  0.00    +0.164 A 
ATOM     12  C   UNL     1       1.129  -0.617  -0.180  0.00  0.00    +0.074 A 
ENDBRANCH   1   3
BRANCH   1  13
ATOM     13  S   UNL     1      -0.586  -3.082   0.847  0.00  0.00    +0.079 S 
ATOM     14  O   UNL     1      -1.377  -4.359   0.838  0.00  0.00    -0.149 OA
ATOM     15  O   UNL     1       0.525  -3.198   1.853  0.00  0.00    -0.149 OA
BRANCH  13  20
ATOM     16  C   UNL     1      -3.559   1.066   3.281  0.00  0.00    +0.051 C 
ATOM     17  C   UNL     1      -2.914   0.095   2.350  0.00  0.00    -0.011 A 
ATOM     18  C   UNL     1      -3.234  -0.074   1.007  0.00  0.00    +0.013 A 
ATOM     19  C   UNL     1      -2.517  -1.109   0.398  0.00  0.00    +0.037 A 
ATOM     20  C   UNL     1      -1.654  -1.757   1.270  0.00  0.00    +0.146 A 
ATOM     21  S   UNL     1      -1.769  -1.056   2.794  0.00  0.00    -0.074 S 
ENDBRANCH  13  20
ENDBRANCH   1  13
TORSDOF 3
