REMARK  Name = 
REMARK  8 active torsions:
REMARK  status: ('A' for Active; 'I' for Inactive)
REMARK    1  A    between atoms: C_1  and  O_2
REMARK    2  A    between atoms: O_2  and  C_3
REMARK    3  A    between atoms: C_5  and  C_12
REMARK    4  A    between atoms: C_8  and  C_9
REMARK    5  A    between atoms: C_9  and  O_11
REMARK    6  A    between atoms: C_12  and  N_13
REMARK    7  A    between atoms: C_14  and  C_16
REMARK    8  A    between atoms: C_18  and  C_19
REMARK                            x       y       z     vdW  Elec       q    Type
REMARK                         _______ _______ _______ _____ _____    ______ ____
ROOT
ATOM      1  N   UNL     1       0.211  -1.997   0.220  0.00  0.00    -0.311 N 
ATOM      2  C   UNL     1      -0.683  -1.108  -0.463  0.00  0.00    +0.217 C 
ATOM      3  O   UNL     1      -0.444  -0.747  -1.647  0.00  0.00    -0.275 OA
ATOM      4  H   UNL     1      -0.010  -2.282   1.202  0.00  0.00    +0.149 HD
ENDROOT
BRANCH   2   5
ATOM      5  C   UNL     1      -1.882  -0.560   0.250  0.00  0.00    +0.083 C 
ATOM      6  C   UNL     1      -2.894  -1.625   0.670  0.00  0.00    +0.022 C 
ATOM      7  C   UNL     1      -3.202  -0.705  -0.506  0.00  0.00    +0.032 C 
BRANCH   7   8
ATOM      8  C   UNL     1      -4.250   0.371  -0.281  0.00  0.00    -0.043 A 
ATOM      9  C   UNL     1      -5.094   0.698  -1.357  0.00  0.00    +0.007 A 
ATOM     10  C   UNL     1      -6.078   1.681  -1.220  0.00  0.00    +0.038 A 
ATOM     11  C   UNL     1      -6.234   2.352  -0.006  0.00  0.00    +0.123 A 
ATOM     12  F   UNL     1      -7.190   3.305   0.125  0.00  0.00    -0.205 F 
ATOM     13  C   UNL     1      -5.404   2.042   1.073  0.00  0.00    +0.038 A 
ATOM     14  C   UNL     1      -4.417   1.060   0.942  0.00  0.00    +0.007 A 
ENDBRANCH   7   8
ENDBRANCH   2   5
BRANCH   1  15
ATOM     15  C   UNL     1       1.420  -2.526  -0.404  0.00  0.00    +0.139 C 
BRANCH  15  18
ATOM     16  C   UNL     1       4.020   0.122   0.505  0.00  0.00    +0.134 A 
ATOM     17  C   UNL     1       3.066  -0.911   0.606  0.00  0.00    +0.051 A 
ATOM     18  C   UNL     1       2.456  -1.443  -0.538  0.00  0.00    -0.027 A 
ATOM     19  C   UNL     1       2.798  -0.937  -1.796  0.00  0.00    +0.006 A 
ATOM     20  C   UNL     1       3.741   0.083  -1.913  0.00  0.00    +0.019 A 
ATOM     21  C   UNL     1       4.363   0.627  -0.773  0.00  0.00    +0.100 A 
BRANCH  16  23
ATOM     22  C   UNL     1       4.378   0.236   2.985  0.00  0.00    +0.277 C 
ATOM     23  O   UNL     1       4.633   0.660   1.650  0.00  0.00    -0.494 OA
ENDBRANCH  16  23
BRANCH  21  24
ATOM     24  C   UNL     1       5.361   1.717  -0.942  0.00  0.00    +0.340 C 
ATOM     25  O   UNL     1       5.658   2.130  -2.096  0.00  0.00    -0.245 OA
BRANCH  24  26
ATOM     26  O   UNL     1       5.982   2.301   0.159  0.00  0.00    -0.477 OA
ATOM     27  H   UNL     1       6.660   3.045   0.042  0.00  0.00    +0.295 HD
ENDBRANCH  24  26
ENDBRANCH  21  24
ENDBRANCH  15  18
ENDBRANCH   1  15
TORSDOF 7
