REMARK  Name = 
REMARK  9 active torsions:
REMARK  status: ('A' for Active; 'I' for Inactive)
REMARK    1  A    between atoms: C_2  and  OXT_3
REMARK    2  A    between atoms: C_2  and  CA_4
REMARK    3  A    between atoms: CA_4  and  CB_5
REMARK    4  A    between atoms: CA_4  and  N_13
REMARK    5  A    between atoms: CB_5  and  CG_6
REMARK    6  A    between atoms: CZ_9  and  OH_10
REMARK    7  A    between atoms: C_14  and  C_16
REMARK    8  A    between atoms: C_16  and  C_17
REMARK    9  A    between atoms: C_16  and  C_23
REMARK                            x       y       z     vdW  Elec       q    Type
REMARK                         _______ _______ _______ _____ _____    ______ ____
ROOT
ATOM      1  N   TYR A   1       0.290  -0.549   1.302  0.00  0.00    -0.301 N 
ATOM      2  C   UNK A   0      -0.840  -0.844   0.466  0.00  0.00    +0.225 C 
ATOM      3  O   UNK A   0      -0.672  -1.440  -0.634  0.00  0.00    -0.275 OA
ATOM      4  H   TYR A   1       0.118  -0.030   2.194  0.00  0.00    +0.150 HD
ENDROOT
BRANCH   1   5
ATOM      5  CA  TYR A   1       1.669  -0.755   0.853  0.00  0.00    +0.186 C 
BRANCH   5   7
ATOM      6  O   TYR A   1       2.657  -0.080   2.938  0.00  0.00    -0.249 OA
ATOM      7  C   TYR A   1       2.571  -0.962   2.041  0.00  0.00    +0.326 C 
BRANCH   7   8
ATOM      8  OXT TYR A   1       3.327  -2.126   2.140  0.00  0.00    -0.479 OA
ATOM      9  HXT TYR A   1       3.945  -2.278   2.928  0.00  0.00    +0.295 HD
ENDBRANCH   7   8
ENDBRANCH   5   7
BRANCH   5  10
ATOM     10  CB  TYR A   1       2.124   0.448   0.006  0.00  0.00    +0.069 C 
BRANCH  10  11
ATOM     11  CG  TYR A   1       3.477   0.211  -0.615  0.00  0.00    -0.045 A 
ATOM     12  CD1 TYR A   1       4.638   0.721  -0.009  0.00  0.00    +0.007 A 
ATOM     13  CE1 TYR A   1       5.894   0.471  -0.571  0.00  0.00    +0.045 A 
ATOM     14  CZ  TYR A   1       6.003  -0.294  -1.737  0.00  0.00    +0.117 A 
ATOM     15  CE2 TYR A   1       4.849  -0.811  -2.341  0.00  0.00    +0.045 A 
ATOM     16  CD2 TYR A   1       3.592  -0.562  -1.782  0.00  0.00    +0.007 A 
BRANCH  14  17
ATOM     17  OH  TYR A   1       7.261  -0.536  -2.285  0.00  0.00    -0.507 OA
ATOM     18  HH  TYR A   1       7.375  -1.089  -3.127  0.00  0.00    +0.292 HD
ENDBRANCH  14  17
ENDBRANCH  10  11
ENDBRANCH   5  10
ENDBRANCH   1   5
BRANCH   2  19
ATOM     19  C   UNK A   0      -2.221  -0.406   0.903  0.00  0.00    +0.135 C 
BRANCH  19  20
ATOM     20  C   UNK A   0      -2.355   1.106   0.960  0.00  0.00    -0.031 A 
ATOM     21  C   UNK A   0      -3.191   1.687   1.931  0.00  0.00    +0.005 A 
ATOM     22  C   UNK A   0      -3.355   3.075   1.988  0.00  0.00    +0.000 A 
ATOM     23  C   UNK A   0      -2.697   3.897   1.070  0.00  0.00    +0.000 A 
ATOM     24  C   UNK A   0      -1.877   3.333   0.090  0.00  0.00    +0.000 A 
ATOM     25  C   UNK A   0      -1.710   1.947   0.027  0.00  0.00    +0.005 A 
ENDBRANCH  19  20
BRANCH  19  26
ATOM     26  C   UNK A   0      -3.327  -1.014   0.056  0.00  0.00    -0.031 A 
ATOM     27  C   UNK A   0      -3.500  -0.643  -1.293  0.00  0.00    +0.005 A 
ATOM     28  C   UNK A   0      -4.522  -1.212  -2.059  0.00  0.00    +0.000 A 
ATOM     29  C   UNK A   0      -5.381  -2.156  -1.491  0.00  0.00    +0.000 A 
ATOM     30  C   UNK A   0      -5.218  -2.534  -0.157  0.00  0.00    +0.000 A 
ATOM     31  C   UNK A   0      -4.197  -1.970   0.614  0.00  0.00    +0.005 A 
ENDBRANCH  19  26
ENDBRANCH   2  19
TORSDOF 9
