REMARK  Name = 
REMARK  8 active torsions:
REMARK  status: ('A' for Active; 'I' for Inactive)
REMARK    1  A    between atoms: C_1  and  O_2
REMARK    2  A    between atoms: O_2  and  C_3
REMARK    3  A    between atoms: C_6  and  S_12
REMARK    4  A    between atoms: C_8  and  C_9
REMARK    5  A    between atoms: S_12  and  N_15
REMARK    6  A    between atoms: N_15  and  C_16
REMARK    7  A    between atoms: C_16  and  C_17
REMARK    8  A    between atoms: C_16  and  C_18
REMARK                            x       y       z     vdW  Elec       q    Type
REMARK                         _______ _______ _______ _____ _____    ______ ____
ROOT
ATOM      1  C   UNL     1       3.049  -0.129  -0.550  0.00  0.00    +0.132 A 
ATOM      2  C   UNL     1       3.020   1.269  -0.732  0.00  0.00    +0.048 A 
ATOM      3  C   UNL     1       2.064   2.050  -0.081  0.00  0.00    +0.032 A 
ATOM      4  C   UNL     1       1.126   1.454   0.767  0.00  0.00    +0.106 A 
ATOM      5  C   UNL     1       1.155   0.068   0.967  0.00  0.00    +0.045 A 
ATOM      6  C   UNL     1       2.101  -0.736   0.306  0.00  0.00    +0.080 A 
ENDROOT
BRANCH   6   7
ATOM      7  C   UNL     1       2.093  -2.205   0.521  0.00  0.00    +0.245 C 
ATOM      8  N   UNL     1       0.875  -2.905   0.797  0.00  0.00    -0.325 N 
ATOM      9  O   UNL     1       3.171  -2.855   0.469  0.00  0.00    -0.270 OA
ATOM     10  H   UNL     1      -0.052  -2.430   0.734  0.00  0.00    +0.145 HD
ATOM     11  H   UNL     1       0.895  -3.930   0.987  0.00  0.00    +0.145 HD
ENDBRANCH   6   7
BRANCH   4  12
ATOM     12  S   UNL     1      -0.110   2.430   1.564  0.00  0.00    +0.059 S 
ATOM     13  O   UNL     1       0.243   2.580   3.016  0.00  0.00    -0.153 OA
ATOM     14  O   UNL     1      -0.180   3.794   0.934  0.00  0.00    -0.153 OA
BRANCH  12  15
ATOM     15  N   UNL     1      -1.667   1.664   1.423  0.00  0.00    -0.181 NA
ATOM     16  H   UNL     1      -1.605   0.764   1.950  0.00  0.00    +0.149 HD
BRANCH  15  17
ATOM     17  C   UNL     1      -2.029   1.444   0.006  0.00  0.00    +0.122 C 
ATOM     18  C   UNL     1      -3.147   2.413  -0.387  0.00  0.00    +0.032 C 
BRANCH  17  19
ATOM     19  C   UNL     1      -2.453   0.010  -0.244  0.00  0.00    +0.059 A 
ATOM     20  C   UNL     1      -3.513  -0.577   0.471  0.00  0.00    +0.025 A 
ATOM     21  C   UNL     1      -3.857  -1.907   0.220  0.00  0.00    +0.003 A 
ATOM     22  C   UNL     1      -3.149  -2.640  -0.734  0.00  0.00    +0.020 A 
ATOM     23  C   UNL     1      -2.101  -2.028  -1.426  0.00  0.00    +0.111 A 
ATOM     24  N   UNL     1      -1.779  -0.732  -1.169  0.00  0.00    -0.258 NA
ENDBRANCH  17  19
ENDBRANCH  15  17
ENDBRANCH  12  15
ENDBRANCH   4  12
BRANCH   1  26
ATOM     25  C   UNL     1       4.987  -0.448  -2.107  0.00  0.00    +0.277 C 
ATOM     26  O   UNL     1       3.989  -0.935  -1.215  0.00  0.00    -0.494 OA
ENDBRANCH   1  26
TORSDOF 6
