REMARK  Name = 
REMARK  8 active torsions:
REMARK  status: ('A' for Active; 'I' for Inactive)
REMARK    1  A    between atoms: C_1  and  C_2
REMARK    2  A    between atoms: C_8  and  N_9
REMARK    3  A    between atoms: C_10  and  C_12
REMARK    4  A    between atoms: C_12  and  N_13
REMARK    5  A    between atoms: C_14  and  C_16
REMARK    6  A    between atoms: C_20  and  S_22
REMARK    7  A    between atoms: S_22  and  N_25
REMARK    8  A    between atoms: N_25  and  C_26
REMARK                            x       y       z     vdW  Elec       q    Type
REMARK                         _______ _______ _______ _____ _____    ______ ____
ROOT
ATOM      1  C   UNL     1       0.615   0.734  -0.605  0.00  0.00    +0.039 A 
ATOM      2  C   UNL     1       0.379   1.774  -1.522  0.00  0.00    +0.013 A 
ATOM      3  C   UNL     1       1.018   1.782  -2.764  0.00  0.00    +0.003 A 
ATOM      4  C   UNL     1       1.908   0.761  -3.103  0.00  0.00    +0.029 A 
ATOM      5  C   UNL     1       2.167  -0.273  -2.195  0.00  0.00    +0.109 A 
ATOM      6  C   UNL     1       1.518  -0.288  -0.952  0.00  0.00    +0.041 A 
ENDROOT
BRANCH   1   8
ATOM      7  N   UNL     1      -0.351  -0.491   1.403  0.00  0.00    -0.303 N 
ATOM      8  C   UNL     1      -0.072   0.736   0.707  0.00  0.00    +0.245 C 
ATOM      9  O   UNL     1      -0.445   1.834   1.206  0.00  0.00    -0.270 OA
ATOM     10  H   UNL     1      -0.108  -1.407   0.965  0.00  0.00    +0.150 HD
BRANCH   7  11
ATOM     11  C   UNL     1      -1.091  -0.522   2.663  0.00  0.00    +0.200 C 
BRANCH  11  13
ATOM     12  N   UNL     1      -3.279  -0.623   1.371  0.00  0.00    -0.284 N 
ATOM     13  C   UNL     1      -2.506  -0.074   2.450  0.00  0.00    +0.234 C 
ATOM     14  O   UNL     1      -3.002   0.797   3.215  0.00  0.00    -0.274 OA
ATOM     15  H   UNL     1      -2.825  -1.320   0.739  0.00  0.00    +0.155 HD
BRANCH  12  23
ATOM     16  C   UNL     1      -3.768   0.217  -1.374  0.00  0.00    +0.047 C 
ATOM     17  C   UNL     1      -4.853   0.266  -0.324  0.00  0.00    -0.011 A 
ATOM     18  C   UNL     1      -6.166   0.665  -0.665  0.00  0.00    +0.046 A 
ATOM     19 CL   UNL     1      -6.615   1.090  -2.315  0.00  0.00    -0.083 Cl
ATOM     20  C   UNL     1      -7.160   0.720   0.318  0.00  0.00    +0.020 A 
ATOM     21  C   UNL     1      -6.872   0.365   1.634  0.00  0.00    +0.003 A 
ATOM     22  C   UNL     1      -5.590  -0.061   1.978  0.00  0.00    +0.023 A 
ATOM     23  C   UNL     1      -4.575  -0.121   1.010  0.00  0.00    +0.038 A 
ENDBRANCH  12  23
ENDBRANCH  11  13
ENDBRANCH   7  11
ENDBRANCH   1   8
BRANCH   5  24
ATOM     24  S   UNL     1       3.312  -1.548  -2.601  0.00  0.00    +0.072 S 
ATOM     25  O   UNL     1       2.551  -2.725  -3.142  0.00  0.00    -0.150 OA
ATOM     26  O   UNL     1       4.288  -1.075  -3.643  0.00  0.00    -0.150 OA
BRANCH  24  27
ATOM     27  N   UNL     1       4.187  -2.035  -1.183  0.00  0.00    -0.216 N 
ATOM     28  H   UNL     1       4.125  -3.043  -0.914  0.00  0.00    +0.174 HD
BRANCH  27  29
ATOM     29  C   UNL     1       4.854  -1.116  -0.299  0.00  0.00    +0.049 A 
ATOM     30  C   UNL     1       5.111   0.218  -0.670  0.00  0.00    +0.024 A 
ATOM     31  C   UNL     1       5.751   1.086   0.220  0.00  0.00    +0.003 A 
ATOM     32  C   UNL     1       6.144   0.635   1.482  0.00  0.00    +0.020 A 
ATOM     33  C   UNL     1       5.901  -0.689   1.857  0.00  0.00    +0.043 A 
ATOM     34 CL   UNL     1       6.394  -1.256   3.442  0.00  0.00    -0.083 Cl
ATOM     35  C   UNL     1       5.262  -1.561   0.969  0.00  0.00    +0.044 A 
ENDBRANCH  27  29
ENDBRANCH  24  27
ENDBRANCH   5  24
TORSDOF 7
