REMARK  Name = 
REMARK  8 active torsions:
REMARK  status: ('A' for Active; 'I' for Inactive)
REMARK    1  A    between atoms: C_1  and  C_2
REMARK    2  A    between atoms: C_2  and  N_3
REMARK    3  A    between atoms: C_2  and  C_17
REMARK    4  A    between atoms: C_4  and  C_6
REMARK    5  A    between atoms: C_6  and  C_7
REMARK    6  A    between atoms: C_7  and  C_8
REMARK    7  A    between atoms: C_20  and  S_23
REMARK    8  A    between atoms: S_23  and  N_24
REMARK                            x       y       z     vdW  Elec       q    Type
REMARK                         _______ _______ _______ _____ _____    ______ ____
ROOT
ATOM      1  N   UNL     1      -0.638  -0.805   1.086  0.00  0.00    -0.309 N 
ATOM      2  C   UNL     1      -0.088   0.510   0.928  0.00  0.00    +0.214 C 
ATOM      3  O   UNL     1      -0.751   1.525   1.279  0.00  0.00    -0.276 OA
ATOM      4  H   UNL     1      -0.046  -1.626   0.823  0.00  0.00    +0.149 HD
ENDROOT
BRANCH   1   6
ATOM      5  C   UNL     1      -2.211  -2.503   1.937  0.00  0.00    +0.033 C 
ATOM      6  C   UNL     1      -1.995  -1.025   1.600  0.00  0.00    +0.100 C 
BRANCH   6   7
ATOM      7  C   UNL     1      -3.024  -0.563   0.590  0.00  0.00    -0.027 A 
ATOM      8  C   UNL     1      -2.934  -0.954  -0.758  0.00  0.00    +0.007 A 
ATOM      9  C   UNL     1      -3.897  -0.536  -1.681  0.00  0.00    +0.029 A 
ATOM     10  C   UNL     1      -4.962   0.275  -1.271  0.00  0.00    +0.105 A 
ATOM     11  C   UNL     1      -5.067   0.652   0.074  0.00  0.00    +0.029 A 
ATOM     12  C   UNL     1      -4.105   0.235   0.999  0.00  0.00    +0.007 A 
BRANCH  10  13
ATOM     13  S   UNL     1      -6.180   0.786  -2.435  0.00  0.00    +0.056 S 
ATOM     14  O   UNL     1      -5.535   1.020  -3.773  0.00  0.00    -0.153 OA
ATOM     15  O   UNL     1      -6.818   2.067  -1.977  0.00  0.00    -0.153 OA
BRANCH  13  16
ATOM     16  N   UNL     1      -7.389  -0.441  -2.578  0.00  0.00    -0.204 NA
ATOM     17  H   UNL     1      -8.061  -0.124  -3.311  0.00  0.00    +0.144 HD
ATOM     18  H   UNL     1      -6.915  -1.294  -2.951  0.00  0.00    +0.144 HD
ENDBRANCH  13  16
ENDBRANCH  10  13
ENDBRANCH   6   7
ENDBRANCH   1   6
BRANCH   2  19
ATOM     19  C   UNL     1       1.298   0.685   0.388  0.00  0.00    +0.102 C 
BRANCH  19  20
ATOM     20  C   UNL     1       2.331   0.514   1.502  0.00  0.00    +0.072 C 
BRANCH  20  21
ATOM     21  C   UNL     1       3.715   0.683   0.962  0.00  0.00    +0.080 A 
ATOM     22  N   UNL     1       4.436  -0.338   0.437  0.00  0.00    -0.244 NA
ATOM     23  C   UNL     1       5.631   0.104  -0.033  0.00  0.00    +0.078 A 
ATOM     24  C   UNL     1       6.595  -0.711  -0.628  0.00  0.00    +0.029 A 
ATOM     25  C   UNL     1       7.790  -0.124  -1.079  0.00  0.00    +0.002 A 
ATOM     26  C   UNL     1       8.004   1.262  -0.935  0.00  0.00    +0.001 A 
ATOM     27  C   UNL     1       7.025   2.072  -0.338  0.00  0.00    +0.017 A 
ATOM     28  C   UNL     1       5.852   1.466   0.104  0.00  0.00    +0.039 A 
ATOM     29  S   UNL     1       4.518   2.170   0.838  0.00  0.00    -0.072 S 
ENDBRANCH  20  21
ENDBRANCH  19  20
ENDBRANCH   2  19
TORSDOF 7
