REMARK  Name = 
REMARK  8 active torsions:
REMARK  status: ('A' for Active; 'I' for Inactive)
REMARK    1  A    between atoms: C_1  and  C_2
REMARK    2  A    between atoms: C_4  and  C_15
REMARK    3  A    between atoms: C_6  and  S_9
REMARK    4  A    between atoms: C_7  and  C_8
REMARK    5  A    between atoms: S_9  and  N_12
REMARK    6  A    between atoms: N_12  and  C_13
REMARK    7  A    between atoms: N_12  and  C_14
REMARK    8  A    between atoms: C_21  and  C_22
REMARK                            x       y       z     vdW  Elec       q    Type
REMARK                         _______ _______ _______ _____ _____    ______ ____
ROOT
ATOM      1  C   UNL     1       0.204   1.962  -1.286  0.00  0.00    +0.247 C 
ATOM      2  O   UNL     1       0.309   1.595  -2.488  0.00  0.00    -0.270 OA
ATOM      3  N   UNL     1       1.293   2.659  -0.656  0.00  0.00    -0.290 N 
ATOM      4  C   UNL     1       1.145   3.512   0.511  0.00  0.00    +0.109 C 
ATOM      5  C   UNL     1       2.518   4.122   0.750  0.00  0.00    +0.021 C 
ATOM      6  C   UNL     1       3.509   3.259  -0.024  0.00  0.00    +0.029 C 
ATOM      7  C   UNL     1       2.683   2.495  -1.064  0.00  0.00    +0.107 C 
ENDROOT
BRANCH   7   8
ATOM      8  C   UNL     1       3.074   1.031  -1.113  0.00  0.00    -0.023 A 
ATOM      9  C   UNL     1       3.877   0.549  -2.163  0.00  0.00    +0.009 A 
ATOM     10  C   UNL     1       4.227  -0.804  -2.224  0.00  0.00    +0.050 A 
ATOM     11  C   UNL     1       3.781  -1.683  -1.236  0.00  0.00    +0.162 A 
ATOM     12  O   UNL     1       4.128  -3.038  -1.272  0.00  0.00    -0.485 OA
ATOM     13  C   UNL     1       3.897  -3.892  -0.149  0.00  0.00    +0.270 C 
ATOM     14  C   UNL     1       2.570  -3.530   0.533  0.00  0.00    +0.270 C 
ATOM     15  O   UNL     1       2.500  -2.121   0.761  0.00  0.00    -0.485 OA
ATOM     16  C   UNL     1       2.974  -1.214  -0.192  0.00  0.00    +0.162 A 
ATOM     17  C   UNL     1       2.646   0.139  -0.111  0.00  0.00    +0.055 A 
ENDBRANCH   7   8
BRANCH   1  21
ATOM     18  C   UNL     1      -3.930   3.075   1.274  0.00  0.00    +0.044 C 
ATOM     19  C   UNL     1      -2.977   2.026   0.762  0.00  0.00    -0.045 A 
ATOM     20  C   UNL     1      -1.891   2.446  -0.021  0.00  0.00    +0.016 A 
ATOM     21  C   UNL     1      -0.964   1.525  -0.507  0.00  0.00    +0.039 A 
ATOM     22  C   UNL     1      -1.125   0.169  -0.226  0.00  0.00    +0.042 A 
ATOM     23  C   UNL     1      -2.190  -0.288   0.558  0.00  0.00    +0.109 A 
ATOM     24  C   UNL     1      -3.161   0.640   1.033  0.00  0.00    -0.021 A 
ATOM     25  C   UNL     1      -4.345   0.172   1.849  0.00  0.00    +0.046 C 
BRANCH  23  26
ATOM     26  S   UNL     1      -2.231  -2.035   0.883  0.00  0.00    +0.061 S 
ATOM     27  O   UNL     1      -3.083  -2.372   2.075  0.00  0.00    -0.153 OA
ATOM     28  O   UNL     1      -0.827  -2.481   1.185  0.00  0.00    -0.153 OA
BRANCH  26  29
ATOM     29  N   UNL     1      -2.803  -2.881  -0.533  0.00  0.00    -0.183 NA
ATOM     30  C   UNL     1      -4.182  -2.478  -0.833  0.00  0.00    +0.131 C 
ATOM     31  C   UNL     1      -2.742  -4.327  -0.298  0.00  0.00    +0.131 C 
ENDBRANCH  26  29
ENDBRANCH  23  26
ENDBRANCH   1  21
TORSDOF 4
