REMARK  Name = 
REMARK  6 active torsions:
REMARK  status: ('A' for Active; 'I' for Inactive)
REMARK    1  A    between atoms: C_1  and  S_2
REMARK    2  A    between atoms: S_2  and  N_5
REMARK    3  A    between atoms: C_9  and  C_10
REMARK    4  A    between atoms: C_10  and  N_11
REMARK    5  A    between atoms: N_11  and  C_12
REMARK    6  A    between atoms: C_12  and  C_13
REMARK                            x       y       z     vdW  Elec       q    Type
REMARK                         _______ _______ _______ _____ _____    ______ ____
ROOT
ATOM      1  C   UNL     1       0.523   0.807  -0.839  0.00  0.00    +0.101 C 
ENDROOT
BRANCH   1   6
ATOM      2  N   UNL     1       2.829  -0.081  -0.818  0.00  0.00    -0.177 NA
ATOM      3  C   UNL     1       3.313  -1.359  -1.363  0.00  0.00    +0.109 C 
ATOM      4  C   UNL     1       2.330  -2.439  -0.960  0.00  0.00    +0.019 C 
ATOM      5  C   UNL     1       1.031  -1.696  -0.792  0.00  0.00    +0.023 C 
ATOM      6  C   UNL     1       1.458  -0.309  -0.318  0.00  0.00    +0.093 C 
BRANCH   2   8
ATOM      7  C   UNL     1       3.296   2.025   1.126  0.00  0.00    +0.215 C 
ATOM      8  S   UNL     1       3.888   0.485   0.456  0.00  0.00    +0.029 S 
ATOM      9  O   UNL     1       5.265   0.710  -0.105  0.00  0.00    -0.158 OA
ATOM     10  O   UNL     1       3.966  -0.536   1.557  0.00  0.00    -0.158 OA
ENDBRANCH   2   8
ENDBRANCH   1   6
BRANCH   1  11
ATOM     11  N   UNL     1      -0.794   0.819  -0.174  0.00  0.00    -0.309 NA
ATOM     12  H   UNL     1      -0.732   0.394   0.781  0.00  0.00    +0.122 HD
BRANCH  11  13
ATOM     13  C   UNL     1      -1.826   0.122  -0.950  0.00  0.00    +0.136 C 
BRANCH  13  14
ATOM     14  C   UNL     1      -3.168   0.355  -0.324  0.00  0.00    +0.055 A 
ATOM     15  C   UNL     1      -3.631  -0.475   0.708  0.00  0.00    +0.024 A 
ATOM     16  C   UNL     1      -4.870  -0.211   1.296  0.00  0.00    +0.003 A 
ATOM     17  C   UNL     1      -5.628   0.877   0.860  0.00  0.00    +0.020 A 
ATOM     18  C   UNL     1      -5.131   1.690  -0.161  0.00  0.00    +0.111 A 
ATOM     19  N   UNL     1      -3.922   1.418  -0.722  0.00  0.00    -0.259 NA
ENDBRANCH  13  14
ENDBRANCH  11  13
ENDBRANCH   1  11
TORSDOF 5
