REMARK  Name = 
REMARK  8 active torsions:
REMARK  status: ('A' for Active; 'I' for Inactive)
REMARK    1  A    between atoms: C_1  and  C_2
REMARK    2  A    between atoms: C_2  and  C_4
REMARK    3  A    between atoms: C_7  and  N_10
REMARK    4  A    between atoms: C_11  and  C_13
REMARK    5  A    between atoms: C_13  and  C_14
REMARK    6  A    between atoms: C_14  and  C_15
REMARK    7  A    between atoms: C_14  and  C_18
REMARK    8  A    between atoms: C_15  and  O_17
REMARK                            x       y       z     vdW  Elec       q    Type
REMARK                         _______ _______ _______ _____ _____    ______ ____
ROOT
ATOM      1  N   UNL     1       0.817  -0.947  -0.149  0.00  0.00    -0.285 N 
ATOM      2  C   UNL     1      -0.251  -0.751  -1.089  0.00  0.00    +0.218 C 
ATOM      3  O   UNL     1      -0.025  -0.241  -2.220  0.00  0.00    -0.275 OA
ATOM      4  H   UNL     1       0.668  -1.634   0.624  0.00  0.00    +0.155 HD
ENDROOT
BRANCH   1   8
ATOM      5  C   UNL     1       4.644   0.923  -0.364  0.00  0.00    +0.017 A 
ATOM      6  C   UNL     1       3.498   1.593  -0.830  0.00  0.00    +0.013 A 
ATOM      7  C   UNL     1       2.240   0.986  -0.768  0.00  0.00    +0.024 A 
ATOM      8  C   UNL     1       2.103  -0.312  -0.250  0.00  0.00    +0.033 A 
ATOM      9  C   UNL     1       3.236  -0.974   0.238  0.00  0.00    +0.024 A 
ATOM     10  C   UNL     1       4.495  -0.369   0.176  0.00  0.00    +0.013 A 
BRANCH   5  12
ATOM     11  C   UNL     1       7.223   0.909   0.050  0.00  0.00    +0.091 C 
ATOM     12  C   UNL     1       5.975   1.583  -0.438  0.00  0.00    +0.160 C 
ATOM     13  O   UNL     1       6.073   2.743  -0.924  0.00  0.00    -0.292 OA
ENDBRANCH   5  12
ENDBRANCH   1   8
BRANCH   2  14
ATOM     14  C   UNL     1      -1.655  -1.144  -0.727  0.00  0.00    +0.115 C 
BRANCH  14  15
ATOM     15  C   UNL     1      -2.420   0.037  -0.095  0.00  0.00    +0.136 C 
BRANCH  15  16
ATOM     16  C   UNL     1      -3.893  -0.283   0.069  0.00  0.00    -0.033 A 
ATOM     17  C   UNL     1      -4.863   0.531  -0.546  0.00  0.00    +0.004 A 
ATOM     18  C   UNL     1      -6.224   0.248  -0.397  0.00  0.00    +0.000 A 
ATOM     19  C   UNL     1      -6.633  -0.846   0.368  0.00  0.00    +0.000 A 
ATOM     20  C   UNL     1      -5.682  -1.660   0.987  0.00  0.00    +0.000 A 
ATOM     21  C   UNL     1      -4.320  -1.382   0.841  0.00  0.00    +0.004 A 
ENDBRANCH  15  16
BRANCH  15  22
ATOM     22  C   UNL     1      -1.827   0.458   1.225  0.00  0.00    +0.313 C 
ATOM     23  O   UNL     1      -1.606  -0.391   2.131  0.00  0.00    -0.250 OA
BRANCH  22  24
ATOM     24  O   UNL     1      -1.539   1.800   1.453  0.00  0.00    -0.480 OA
ATOM     25  H   UNL     1      -1.145   2.104   2.335  0.00  0.00    +0.295 HD
ENDBRANCH  22  24
ENDBRANCH  15  22
ENDBRANCH  14  15
ENDBRANCH   2  14
TORSDOF 7
