REMARK  Name = 
REMARK  5 active torsions:
REMARK  status: ('A' for Active; 'I' for Inactive)
REMARK    1  A    between atoms: C_2  and  C_4
REMARK    2  A    between atoms: C_4  and  O_5
REMARK    3  A    between atoms: C_4  and  C_6
REMARK    4  A    between atoms: N_9  and  C_10
REMARK    5  A    between atoms: C_10  and  C_11
REMARK                            x       y       z     vdW  Elec       q    Type
REMARK                         _______ _______ _______ _____ _____    ______ ____
ROOT
ATOM      1  C   UNL     1       2.022  -0.160  -0.073  0.00  0.00    +0.029 C 
ATOM      2  C   UNL     1       1.901   0.977   0.974  0.00  0.00    +0.022 C 
ATOM      3  C   UNL     1       0.529   0.996   1.675  0.00  0.00    +0.085 C 
ATOM      4  N   UNL     1      -0.497   0.366   0.823  0.00  0.00    -0.298 NA
ATOM      5  C   UNL     1      -0.233  -1.088   0.682  0.00  0.00    +0.085 C 
ATOM      6  C   UNL     1       1.258  -1.402   0.423  0.00  0.00    +0.022 C 
ENDROOT
BRANCH   1   7
ATOM      7  C   UNL     1       3.500  -0.498  -0.384  0.00  0.00    +0.203 C 
BRANCH   7   9
ATOM      8  N   UNL     1       3.959   1.256  -2.179  0.00  0.00    -0.327 N 
ATOM      9  C   UNL     1       4.242   0.714  -0.888  0.00  0.00    +0.239 C 
ATOM     10  O   UNL     1       5.106   1.268  -0.156  0.00  0.00    -0.273 OA
ATOM     11  H   UNL     1       3.244   0.815  -2.799  0.00  0.00    +0.145 HD
ATOM     12  H   UNL     1       4.468   2.103  -2.517  0.00  0.00    +0.145 HD
ENDBRANCH   7   9
BRANCH   7  13
ATOM     13  O   UNL     1       3.561  -1.512  -1.354  0.00  0.00    -0.382 OA
ATOM     14  H   UNL     1       4.482  -1.883  -1.325  0.00  0.00    +0.210 HD
ENDBRANCH   7  13
ENDBRANCH   1   7
BRANCH   4  15
ATOM     15  C   UNL     1      -1.847   0.611   1.372  0.00  0.00    +0.119 C 
BRANCH  15  16
ATOM     16  C   UNL     1      -2.906   0.239   0.367  0.00  0.00    -0.030 A 
ATOM     17  C   UNL     1      -3.706  -0.899   0.559  0.00  0.00    +0.008 A 
ATOM     18  C   UNL     1      -4.669  -1.251  -0.391  0.00  0.00    +0.041 A 
ATOM     19  C   UNL     1      -4.838  -0.472  -1.540  0.00  0.00    +0.158 A 
ATOM     20  F   UNL     1      -5.773  -0.818  -2.460  0.00  0.00    -0.202 F 
ATOM     21  C   UNL     1      -4.041   0.659  -1.741  0.00  0.00    +0.159 A 
ATOM     22  F   UNL     1      -4.199   1.413  -2.857  0.00  0.00    -0.202 F 
ATOM     23  C   UNL     1      -3.076   1.013  -0.792  0.00  0.00    +0.046 A 
ENDBRANCH  15  16
ENDBRANCH   4  15
TORSDOF 5
