REMARK  Name = 
REMARK  6 active torsions:
REMARK  status: ('A' for Active; 'I' for Inactive)
REMARK    1  A    between atoms: C_1  and  N_2
REMARK    2  A    between atoms: N_2  and  C_3
REMARK    3  A    between atoms: C_4  and  C_6
REMARK    4  A    between atoms: C_9  and  O_12
REMARK    5  A    between atoms: O_12  and  C_13
REMARK    6  A    between atoms: C_13  and  C_14
REMARK                            x       y       z     vdW  Elec       q    Type
REMARK                         _______ _______ _______ _____ _____    ______ ____
ROOT
ATOM      1  C   UNL     1      -2.259  -0.925   0.190  0.00  0.00    +0.037 A 
ATOM      2  C   UNL     1      -1.390  -1.569  -0.704  0.00  0.00    +0.016 A 
ATOM      3  C   UNL     1      -0.032  -1.238  -0.735  0.00  0.00    +0.046 A 
ATOM      4  C   UNL     1       0.481  -0.264   0.143  0.00  0.00    +0.121 A 
ATOM      5  C   UNL     1      -0.384   0.362   1.047  0.00  0.00    +0.046 A 
ATOM      6  C   UNL     1      -1.742   0.031   1.078  0.00  0.00    +0.016 A 
ENDROOT
BRANCH   1  10
ATOM      7  C   UNL     1      -4.558   1.036  -0.212  0.00  0.00    +0.132 C 
ATOM      8  N   UNL     1      -4.727  -0.301   0.368  0.00  0.00    -0.304 N 
ATOM      9  C   UNL     1      -6.013  -0.693   0.949  0.00  0.00    +0.132 C 
ATOM     10  C   UNL     1      -3.691  -1.294   0.227  0.00  0.00    +0.246 C 
ATOM     11  O   UNL     1      -4.007  -2.510   0.123  0.00  0.00    -0.270 OA
ENDBRANCH   1  10
BRANCH   4  12
ATOM     12  O   UNL     1       1.834   0.105   0.151  0.00  0.00    -0.487 OA
BRANCH  12  13
ATOM     13  C   UNL     1       2.825  -0.447  -0.711  0.00  0.00    +0.266 C 
BRANCH  13  14
ATOM     14  C   UNL     1       4.149   0.193  -0.414  0.00  0.00    +0.008 A 
ATOM     15  C   UNL     1       4.535   1.371  -1.068  0.00  0.00    +0.010 A 
ATOM     16  C   UNL     1       5.753   1.976  -0.754  0.00  0.00    +0.020 A 
ATOM     17  C   UNL     1       6.569   1.404   0.223  0.00  0.00    +0.111 A 
ATOM     18  N   UNL     1       6.174   0.270   0.862  0.00  0.00    -0.263 NA
ATOM     19  C   UNL     1       4.993  -0.339   0.573  0.00  0.00    +0.117 A 
ENDBRANCH  13  14
ENDBRANCH  12  13
ENDBRANCH   4  12
TORSDOF 4
