REMARK  Name = 
REMARK  7 active torsions:
REMARK  status: ('A' for Active; 'I' for Inactive)
REMARK    1  A    between atoms: C_2  and  C_3
REMARK    2  A    between atoms: C_6  and  C_9
REMARK    3  A    between atoms: C_12  and  O_15
REMARK    4  A    between atoms: O_15  and  C_16
REMARK    5  A    between atoms: C_16  and  C_17
REMARK    6  A    between atoms: N_19  and  C_20
REMARK    7  A    between atoms: C_23  and  C_26
REMARK                            x       y       z     vdW  Elec       q    Type
REMARK                         _______ _______ _______ _____ _____    ______ ____
ROOT
ATOM      1  C   UNL     1       0.757  -1.305  -0.645  0.00  0.00    +0.324 C 
ENDROOT
BRANCH   1   2
ATOM      2  C   UNL     1       2.218  -1.312  -0.330  0.00  0.00    +0.255 C 
ATOM      3  O   UNL     1       2.723  -2.318   0.236  0.00  0.00    -0.272 OA
ATOM      4  N   UNL     1       3.009  -0.140  -0.586  0.00  0.00    -0.283 N 
ATOM      5  H   UNL     1       2.502   0.755  -0.773  0.00  0.00    +0.155 HD
BRANCH   4   6
ATOM      6  C   UNL     1       4.443  -0.097  -0.487  0.00  0.00    +0.034 A 
ATOM      7  C   UNL     1       5.068   1.092  -0.087  0.00  0.00    +0.024 A 
ATOM      8  C   UNL     1       6.461   1.169  -0.003  0.00  0.00    +0.015 A 
ATOM      9  C   UNL     1       7.260   0.061  -0.338  0.00  0.00    +0.037 A 
ATOM     10  C   UNL     1       6.630  -1.127  -0.750  0.00  0.00    +0.015 A 
ATOM     11  C   UNL     1       5.237  -1.203  -0.834  0.00  0.00    +0.024 A 
BRANCH   9  12
ATOM     12  C   UNL     1       8.739   0.123  -0.250  0.00  0.00    +0.242 C 
ATOM     13  N   UNL     1       9.441   1.368  -0.303  0.00  0.00    -0.325 N 
ATOM     14  O   UNL     1       9.402  -0.944  -0.138  0.00  0.00    -0.270 OA
ATOM     15  H   UNL     1      10.478   1.386  -0.179  0.00  0.00    +0.145 HD
ATOM     16  H   UNL     1       8.961   2.260  -0.553  0.00  0.00    +0.145 HD
ENDBRANCH   9  12
ENDBRANCH   4   6
ENDBRANCH   1   2
BRANCH   1  17
ATOM     17  O   UNL     1       0.055  -0.647   0.405  0.00  0.00    -0.483 OA
BRANCH  17  21
ATOM     18  C   UNL     1      -4.119  -0.011   0.569  0.00  0.00    -0.018 A 
ATOM     19  C   UNL     1      -3.270   0.435   1.597  0.00  0.00    +0.012 A 
ATOM     20  C   UNL     1      -1.892   0.215   1.524  0.00  0.00    +0.046 A 
ATOM     21  C   UNL     1      -1.334  -0.452   0.429  0.00  0.00    +0.121 A 
ATOM     22  C   UNL     1      -2.178  -0.901  -0.603  0.00  0.00    +0.046 A 
ATOM     23  C   UNL     1      -3.557  -0.682  -0.532  0.00  0.00    +0.012 A 
BRANCH  18  27
ATOM     24  C   UNL     1      -8.361   0.663   0.787  0.00  0.00    +0.052 A 
ATOM     25  C   UNL     1      -7.470   1.665   1.188  0.00  0.00    +0.019 A 
ATOM     26  C   UNL     1      -6.090   1.447   1.118  0.00  0.00    +0.010 A 
ATOM     27  C   UNL     1      -5.584   0.222   0.644  0.00  0.00    -0.018 A 
ATOM     28  C   UNL     1      -6.489  -0.779   0.244  0.00  0.00    +0.010 A 
ATOM     29  C   UNL     1      -7.868  -0.558   0.316  0.00  0.00    +0.019 A 
BRANCH  24  31
ATOM     30  N   UNL     1     -10.922   1.071   0.919  0.00  0.00    -0.191 NA
ATOM     31  C   UNL     1      -9.781   0.889   0.860  0.00  0.00    +0.099 C 
ENDBRANCH  24  31
ENDBRANCH  18  27
ENDBRANCH  17  21
ENDBRANCH   1  17
TORSDOF 7
