REMARK  Name = 
REMARK  7 active torsions:
REMARK  status: ('A' for Active; 'I' for Inactive)
REMARK    1  A    between atoms: C_1  and  C_2
REMARK    2  A    between atoms: C_5  and  C_6
REMARK    3  A    between atoms: C_6  and  N_7
REMARK    4  A    between atoms: N_7  and  C_8
REMARK    5  A    between atoms: N_7  and  S_9
REMARK    6  A    between atoms: S_9  and  C_12
REMARK    7  A    between atoms: C_19  and  C_20
REMARK                            x       y       z     vdW  Elec       q    Type
REMARK                         _______ _______ _______ _____ _____    ______ ____
ROOT
ATOM      1  N   UNL     1       0.551   0.039  -1.576  0.00  0.00    -0.174 NA
ATOM      2  C   UNL     1       0.454   1.454  -1.185  0.00  0.00    +0.132 C 
ENDROOT
BRANCH   1   3
ATOM      3  S   UNL     1       2.233  -0.432  -1.623  0.00  0.00    +0.061 S 
ATOM      4  O   UNL     1       2.344  -1.855  -2.098  0.00  0.00    -0.153 OA
ATOM      5  O   UNL     1       2.972   0.441  -2.601  0.00  0.00    -0.153 OA
BRANCH   3   6
ATOM      6  C   UNL     1       2.979  -0.289  -0.030  0.00  0.00    +0.107 A 
ATOM      7  C   UNL     1       2.917  -1.360   0.874  0.00  0.00    +0.028 A 
ATOM      8  C   UNL     1       3.488  -1.240   2.145  0.00  0.00    +0.003 A 
ATOM      9  C   UNL     1       4.122  -0.052   2.519  0.00  0.00    +0.015 A 
ATOM     10  C   UNL     1       4.186   1.019   1.621  0.00  0.00    +0.020 A 
ATOM     11 BR   UNL     1       5.044   2.646   2.136  0.00  0.00    -0.050 Br
ATOM     12  C   UNL     1       3.616   0.901   0.349  0.00  0.00    +0.043 A 
ENDBRANCH   3   6
ENDBRANCH   1   3
BRANCH   1  13
ATOM     13  C   UNL     1      -0.178  -0.825  -0.629  0.00  0.00    +0.164 C 
BRANCH  13  18
ATOM     14  C   UNL     1      -4.044   2.056   2.585  0.00  0.00    +0.053 C 
ATOM     15  C   UNL     1      -3.722   1.255   1.370  0.00  0.00    +0.007 A 
ATOM     16  C   UNL     1      -2.460   0.724   1.063  0.00  0.00    +0.104 A 
ATOM     17  N   UNL     1      -2.503  -0.010  -0.069  0.00  0.00    -0.296 N 
ATOM     18  C   UNL     1      -1.659  -0.702  -0.840  0.00  0.00    +0.062 A 
ATOM     19  C   UNL     1      -2.420  -1.179  -1.909  0.00  0.00    +0.062 A 
ATOM     20  C   UNL     1      -1.901  -1.967  -3.066  0.00  0.00    +0.067 C 
ATOM     21  N   UNL     1      -3.721  -0.786  -1.789  0.00  0.00    -0.226 NA
ATOM     22  C   UNL     1      -3.688  -0.084  -0.641  0.00  0.00    +0.178 A 
ATOM     23  S   UNL     1      -4.871   0.761   0.195  0.00  0.00    -0.055 S 
ENDBRANCH  13  18
ENDBRANCH   1  13
TORSDOF 4
