REMARK  Name = 
REMARK  3 active torsions:
REMARK  status: ('A' for Active; 'I' for Inactive)
REMARK    1  A    between atoms: S_2  and  N_4
REMARK    2  A    between atoms: S_2  and  C_14
REMARK    3  A    between atoms: N_4  and  C_5
REMARK                            x       y       z     vdW  Elec       q    Type
REMARK                         _______ _______ _______ _____ _____    ______ ____
ROOT
ATOM      1  O   UNL     1       0.206  -3.418  -1.577  0.00  0.00    -0.150 OA
ATOM      2  S   UNL     1       0.781  -2.029  -1.551  0.00  0.00    +0.073 S 
ATOM      3  O   UNL     1       1.931  -1.964  -2.517  0.00  0.00    -0.150 OA
ENDROOT
BRANCH   2   4
ATOM      4  C   UNL     1       1.373  -1.619   0.070  0.00  0.00    +0.118 A 
ATOM      5  C   UNL     1       1.330  -2.605   1.068  0.00  0.00    +0.032 A 
ATOM      6  C   UNL     1       1.733  -2.320   2.373  0.00  0.00    +0.042 A 
ATOM      7  C   UNL     1       2.185  -1.044   2.707  0.00  0.00    +0.149 A 
ATOM      8  F   UNL     1       2.567  -0.782   3.982  0.00  0.00    -0.203 F 
ATOM      9  C   UNL     1       2.244  -0.044   1.731  0.00  0.00    +0.108 A 
ATOM     10  N   UNL     1       2.685   1.199   2.069  0.00  0.00    -0.252 NA
ATOM     11  C   UNL     1       2.764   2.205   1.162  0.00  0.00    +0.111 A 
ATOM     12  C   UNL     1       2.394   1.981  -0.163  0.00  0.00    +0.020 A 
ATOM     13  C   UNL     1       1.940   0.720  -0.547  0.00  0.00    +0.013 A 
ATOM     14  C   UNL     1       1.846  -0.321   0.398  0.00  0.00    +0.030 A 
ENDBRANCH   2   4
BRANCH   2  15
ATOM     15  N   UNL     1      -0.448  -0.905  -2.035  0.00  0.00    -0.216 N 
ATOM     16  H   UNL     1      -0.347  -0.465  -2.977  0.00  0.00    +0.174 HD
BRANCH  15  17
ATOM     17  C   UNL     1      -1.417  -0.383  -1.114  0.00  0.00    +0.059 A 
ATOM     18  C   UNL     1      -1.890  -1.138  -0.015  0.00  0.00    +0.025 A 
ATOM     19  C   UNL     1      -2.833  -0.589   0.884  0.00  0.00    +0.004 A 
ATOM     20  C   UNL     1      -3.320   0.718   0.699  0.00  0.00    +0.028 A 
ATOM     21  C   UNL     1      -2.842   1.434  -0.395  0.00  0.00    +0.068 A 
ATOM     22  N   UNL     1      -3.144   2.688  -0.763  0.00  0.00    -0.277 N 
ATOM     23  N   UNL     1      -2.445   2.985  -1.853  0.00  0.00    -0.181 NA
ATOM     24  C   UNL     1      -1.690   1.909  -2.185  0.00  0.00    +0.144 A 
ATOM     25  C   UNL     1      -1.933   0.907  -1.267  0.00  0.00    +0.042 A 
ATOM     26  H   UNL     1      -3.805   3.341  -0.286  0.00  0.00    +0.189 HD
ENDBRANCH  15  17
ENDBRANCH   2  15
TORSDOF 3
