REMARK  Name = 
REMARK  8 active torsions:
REMARK  status: ('A' for Active; 'I' for Inactive)
REMARK    1  A    between atoms: C_1  and  C_2
REMARK    2  A    between atoms: C_5  and  C_6
REMARK    3  A    between atoms: C_7  and  C_8
REMARK    4  A    between atoms: C_8  and  N_9
REMARK    5  A    between atoms: C_10  and  C_12
REMARK    6  A    between atoms: C_12  and  C_13
REMARK    7  A    between atoms: C_12  and  S_14
REMARK    8  A    between atoms: S_14  and  C_17
REMARK                            x       y       z     vdW  Elec       q    Type
REMARK                         _______ _______ _______ _____ _____    ______ ____
ROOT
ATOM      1  N   UNL     1      -1.527  -0.756   0.963  0.00  0.00    -0.309 N 
ATOM      2  C   UNL     1      -0.666   0.296   0.505  0.00  0.00    +0.238 C 
ATOM      3  O   UNL     1      -1.082   1.488   0.482  0.00  0.00    -0.274 OA
ATOM      4  H   UNL     1      -1.152  -1.729   1.038  0.00  0.00    +0.149 HD
ENDROOT
BRANCH   2   5
ATOM      5  C   UNL     1       0.730  -0.017   0.039  0.00  0.00    +0.218 C 
ATOM      6  C   UNL     1       0.905   0.369  -1.431  0.00  0.00    +0.042 C 
BRANCH   5   7
ATOM      7  S   UNL     1       1.930   0.824   1.069  0.00  0.00    +0.008 S 
ATOM      8  O   UNL     1       1.692   0.473   2.512  0.00  0.00    -0.169 OA
ATOM      9  O   UNL     1       1.794   2.313   0.910  0.00  0.00    -0.169 OA
BRANCH   7  10
ATOM     10  C   UNL     1       3.556   0.321   0.614  0.00  0.00    +0.089 A 
ATOM     11  C   UNL     1       4.341   1.125  -0.225  0.00  0.00    +0.030 A 
ATOM     12  C   UNL     1       5.623   0.710  -0.597  0.00  0.00    +0.040 A 
ATOM     13  C   UNL     1       6.126  -0.510  -0.135  0.00  0.00    +0.124 A 
ATOM     14  F   UNL     1       7.369  -0.912  -0.497  0.00  0.00    -0.205 F 
ATOM     15  C   UNL     1       5.344  -1.318   0.696  0.00  0.00    +0.040 A 
ATOM     16  C   UNL     1       4.061  -0.905   1.069  0.00  0.00    +0.030 A 
ENDBRANCH   7  10
ENDBRANCH   5   7
ENDBRANCH   2   5
BRANCH   1  17
ATOM     17  C   UNL     1      -2.926  -0.526   1.311  0.00  0.00    +0.145 C 
BRANCH  17  24
ATOM     18  C   UNL     1      -3.201  -2.202  -1.402  0.00  0.00    +0.069 C 
ATOM     19  C   UNL     1      -3.862  -0.902  -1.079  0.00  0.00    +0.085 A 
ATOM     20  N   UNL     1      -4.640  -0.221  -1.942  0.00  0.00    -0.083 NA
ATOM     21  O   UNL     1      -4.994   0.883  -1.348  0.00  0.00    -0.359 OA
ATOM     22  C   UNL     1      -4.477   0.962  -0.143  0.00  0.00    +0.139 A 
ATOM     23  C   UNL     1      -4.690   2.108   0.790  0.00  0.00    +0.089 C 
ATOM     24  C   UNL     1      -3.720  -0.170   0.086  0.00  0.00    +0.034 A 
ENDBRANCH  17  24
ENDBRANCH   1  17
TORSDOF 5
