REMARK  Name = 
REMARK  6 active torsions:
REMARK  status: ('A' for Active; 'I' for Inactive)
REMARK    1  A    between atoms: C_1  and  N_2
REMARK    2  A    between atoms: N_2  and  C_3
REMARK    3  A    between atoms: C_3  and  C_4
REMARK    4  A    between atoms: C_10  and  C_12
REMARK    5  A    between atoms: C_17  and  C_18
REMARK    6  A    between atoms: C_18  and  O_20
REMARK                            x       y       z     vdW  Elec       q    Type
REMARK                         _______ _______ _______ _____ _____    ______ ____
ROOT
ATOM      1  C   UNL     1      -0.134   1.336  -1.295  0.00  0.00    +0.132 C 
ATOM      2  N   UNL     1       0.269   0.864   0.035  0.00  0.00    -0.296 N 
ATOM      3  C   UNL     1      -0.502  -0.156   0.708  0.00  0.00    +0.247 C 
ATOM      4  O   UNL     1      -0.038  -0.730   1.730  0.00  0.00    -0.270 OA
ENDROOT
BRANCH   3   5
ATOM      5  C   UNL     1      -1.828  -0.573   0.211  0.00  0.00    +0.051 A 
ATOM      6  C   UNL     1      -1.937  -1.846  -0.370  0.00  0.00    +0.014 A 
ATOM      7  C   UNL     1      -3.148  -2.280  -0.907  0.00  0.00    +0.001 A 
ATOM      8  C   UNL     1      -4.266  -1.449  -0.868  0.00  0.00    +0.001 A 
ATOM      9  C   UNL     1      -4.181  -0.186  -0.281  0.00  0.00    +0.016 A 
ATOM     10  C   UNL     1      -2.971   0.270   0.279  0.00  0.00    +0.071 A 
BRANCH  10  11
ATOM     11  C   UNL     1      -2.955   1.603   0.938  0.00  0.00    +0.338 C 
ATOM     12  O   UNL     1      -2.025   1.929   1.723  0.00  0.00    -0.245 OA
BRANCH  11  13
ATOM     13  O   UNL     1      -3.990   2.506   0.708  0.00  0.00    -0.477 OA
ATOM     14  H   UNL     1      -3.997   3.415   1.154  0.00  0.00    +0.295 HD
ENDBRANCH  11  13
ENDBRANCH  10  11
ENDBRANCH   3   5
BRANCH   2  15
ATOM     15  C   UNL     1       1.504   1.374   0.646  0.00  0.00    +0.142 C 
BRANCH  15  16
ATOM     16  C   UNL     1       2.638   0.408   0.425  0.00  0.00    -0.030 A 
ATOM     17  C   UNL     1       3.217   0.280  -0.848  0.00  0.00    +0.005 A 
ATOM     18  C   UNL     1       4.256  -0.632  -1.061  0.00  0.00    +0.000 A 
ATOM     19  C   UNL     1       4.722  -1.422  -0.007  0.00  0.00    +0.000 A 
ATOM     20  C   UNL     1       4.150  -1.302   1.262  0.00  0.00    +0.000 A 
ATOM     21  C   UNL     1       3.111  -0.392   1.480  0.00  0.00    +0.005 A 
ENDBRANCH  15  16
ENDBRANCH   2  15
TORSDOF 5
