REMARK  Name = 
REMARK  12 active torsions:
REMARK  status: ('A' for Active; 'I' for Inactive)
REMARK    1  A    between atoms: C_1  and  O_2
REMARK    2  A    between atoms: O_2  and  C_3
REMARK    3  A    between atoms: C_3  and  C_4
REMARK    4  A    between atoms: C_4  and  C_5
REMARK    5  A    between atoms: C_4  and  N_6
REMARK    6  A    between atoms: N_6  and  S_7
REMARK    7  A    between atoms: S_7  and  C_10
REMARK    8  A    between atoms: C_13  and  N_16
REMARK    9  A    between atoms: C_17  and  C_19
REMARK   10  A    between atoms: C_19  and  C_20
REMARK   11  A    between atoms: C_23  and  C_24
REMARK   12  A    between atoms: C_25  and  C_26
REMARK                            x       y       z     vdW  Elec       q    Type
REMARK                         _______ _______ _______ _____ _____    ______ ____
ROOT
ATOM      1  C   UNL     1      -1.960  -1.081   1.959  0.00  0.00    +0.105 A 
ATOM      2  C   UNL     1      -1.064  -0.093   1.529  0.00  0.00    +0.030 A 
ATOM      3  C   UNL     1      -0.014  -0.422   0.666  0.00  0.00    +0.025 A 
ATOM      4  C   UNL     1       0.149  -1.745   0.218  0.00  0.00    +0.034 A 
ATOM      5  C   UNL     1      -0.736  -2.734   0.669  0.00  0.00    +0.025 A 
ATOM      6  C   UNL     1      -1.791  -2.403   1.525  0.00  0.00    +0.030 A 
ENDROOT
BRANCH   4   7
ATOM      7  N   UNL     1       1.239  -2.112  -0.645  0.00  0.00    -0.285 N 
ATOM      8  C   UNL     1       1.747  -1.265  -1.685  0.00  0.00    +0.222 C 
ATOM      9  O   UNL     1       1.065  -0.291  -2.105  0.00  0.00    -0.275 OA
ATOM     10  H   UNL     1       1.630  -3.078  -0.559  0.00  0.00    +0.155 HD
BRANCH   8  11
ATOM     11  C   UNL     1       3.086  -1.544  -2.299  0.00  0.00    +0.131 C 
BRANCH  11  12
ATOM     12  C   UNL     1       4.046  -0.430  -1.978  0.00  0.00    -0.038 A 
ATOM     13  C   UNL     1       4.382   0.519  -2.951  0.00  0.00    +0.004 A 
ATOM     14  C   UNL     1       5.255   1.563  -2.646  0.00  0.00    +0.004 A 
ATOM     15  C   UNL     1       5.806   1.683  -1.360  0.00  0.00    -0.048 A 
ATOM     16  C   UNL     1       6.734   2.831  -1.061  0.00  0.00    +0.044 C 
ATOM     17  C   UNL     1       5.447   0.746  -0.362  0.00  0.00    -0.047 A 
ATOM     18  C   UNL     1       5.996   0.847   1.037  0.00  0.00    +0.044 C 
ATOM     19  C   UNL     1       4.577  -0.310  -0.686  0.00  0.00    +0.007 A 
ENDBRANCH  11  12
ENDBRANCH   8  11
ENDBRANCH   4   7
BRANCH   1  20
ATOM     20  S   UNL     1      -3.307  -0.670   3.018  0.00  0.00    +0.059 S 
ATOM     21  O   UNL     1      -2.999   0.591   3.777  0.00  0.00    -0.153 OA
ATOM     22  O   UNL     1      -3.510  -1.781   4.010  0.00  0.00    -0.153 OA
BRANCH  20  23
ATOM     23  N   UNL     1      -4.759  -0.476   2.076  0.00  0.00    -0.185 NA
ATOM     24  H   UNL     1      -4.807  -1.316   1.455  0.00  0.00    +0.148 HD
BRANCH  23  25
ATOM     25  C   UNL     1      -4.713   0.761   1.270  0.00  0.00    +0.099 C 
ATOM     26  C   UNL     1      -5.453   1.881   2.011  0.00  0.00    +0.028 C 
BRANCH  25  27
ATOM     27  C   UNL     1      -5.332   0.542  -0.124  0.00  0.00    +0.179 C 
BRANCH  27  29
ATOM     28  C   UNL     1      -7.233  -0.052  -1.282  0.00  0.00    +0.194 C 
ATOM     29  O   UNL     1      -6.667   0.093   0.001  0.00  0.00    -0.381 OA
ENDBRANCH  27  29
ENDBRANCH  25  27
ENDBRANCH  23  25
ENDBRANCH  20  23
ENDBRANCH   1  20
TORSDOF 8
