REMARK  Name = 
REMARK  7 active torsions:
REMARK  status: ('A' for Active; 'I' for Inactive)
REMARK    1  A    between atoms: C_2  and  C_4
REMARK    2  A    between atoms: C_8  and  C_10
REMARK    3  A    between atoms: N_12  and  CA_13
REMARK    4  A    between atoms: CA_13  and  CB_14
REMARK    5  A    between atoms: CA_13  and  C_21
REMARK    6  A    between atoms: CB_14  and  CG_15
REMARK    7  A    between atoms: C_21  and  OXT_23
REMARK                            x       y       z     vdW  Elec       q    Type
REMARK                         _______ _______ _______ _____ _____    ______ ____
ROOT
ATOM      1  C   UNK A   0      -0.511  -1.585   0.367  0.00  0.00    +0.245 C 
ATOM      2  O   UNK A   0      -0.178  -2.635   0.982  0.00  0.00    -0.270 OA
ATOM      3  N   PHE A   1       0.495  -0.798  -0.291  0.00  0.00    -0.298 N 
ATOM      4  H   PHE A   1       0.240   0.144  -0.662  0.00  0.00    +0.150 HD
ENDROOT
BRANCH   1   9
ATOM      5  C   UNK A   0      -3.809   0.001  -0.698  0.00  0.00    +0.037 A 
ATOM      6  C   UNK A   0      -4.645  -0.426   0.348  0.00  0.00    +0.013 A 
ATOM      7  C   UNK A   0      -4.138  -1.214   1.383  0.00  0.00    +0.001 A 
ATOM      8  C   UNK A   0      -2.793  -1.586   1.388  0.00  0.00    +0.013 A 
ATOM      9  C   UNK A   0      -1.935  -1.172   0.356  0.00  0.00    +0.037 A 
ATOM     10  C   UNK A   0      -2.456  -0.390  -0.693  0.00  0.00    +0.026 A 
BRANCH   5  12
ATOM     11  N   UNK A   0      -3.529   1.671  -2.593  0.00  0.00    -0.325 N 
ATOM     12  C   UNK A   0      -4.365   0.826  -1.798  0.00  0.00    +0.242 C 
ATOM     13  O   UNK A   0      -5.603   0.799  -2.034  0.00  0.00    -0.270 OA
ATOM     14  H   UNK A   0      -3.936   2.197  -3.398  0.00  0.00    +0.145 HD
ATOM     15  H   UNK A   0      -2.533   1.853  -2.342  0.00  0.00    +0.145 HD
ENDBRANCH   5  12
ENDBRANCH   1   9
BRANCH   3  16
ATOM     16  CA  PHE A   1       1.877  -1.270  -0.436  0.00  0.00    +0.186 C 
BRANCH  16  17
ATOM     17  C   PHE A   1       1.943  -2.323  -1.504  0.00  0.00    +0.326 C 
ATOM     18  O   PHE A   1       1.420  -2.117  -2.633  0.00  0.00    -0.249 OA
BRANCH  17  19
ATOM     19  OXT PHE A   1       2.606  -3.520  -1.255  0.00  0.00    -0.479 OA
ATOM     20  HXT PHE A   1       2.668  -4.238  -1.967  0.00  0.00    +0.295 HD
ENDBRANCH  17  19
ENDBRANCH  16  17
BRANCH  16  21
ATOM     21  CB  PHE A   1       2.828  -0.109  -0.786  0.00  0.00    +0.069 C 
BRANCH  21  22
ATOM     22  CG  PHE A   1       2.901   0.901   0.332  0.00  0.00    -0.045 A 
ATOM     23  CD1 PHE A   1       2.175   2.102   0.260  0.00  0.00    +0.004 A 
ATOM     24  CE1 PHE A   1       2.226   3.021   1.312  0.00  0.00    +0.000 A 
ATOM     25  CZ  PHE A   1       2.999   2.748   2.444  0.00  0.00    +0.000 A 
ATOM     26  CE2 PHE A   1       3.721   1.554   2.526  0.00  0.00    +0.000 A 
ATOM     27  CD2 PHE A   1       3.672   0.632   1.476  0.00  0.00    +0.004 A 
ENDBRANCH  21  22
ENDBRANCH  16  21
ENDBRANCH   3  16
TORSDOF 7
