REMARK  Name = 
REMARK  9 active torsions:
REMARK  status: ('A' for Active; 'I' for Inactive)
REMARK    1  A    between atoms: C_1  and  C_2
REMARK    2  A    between atoms: C_2  and  C_3
REMARK    3  A    between atoms: C_5  and  C_6
REMARK    4  A    between atoms: C_7  and  C_9
REMARK    5  A    between atoms: N_11  and  C_12
REMARK    6  A    between atoms: C_12  and  C_13
REMARK    7  A    between atoms: C_12  and  C_17
REMARK    8  A    between atoms: C_13  and  C_14
REMARK    9  A    between atoms: C_14  and  O_16
REMARK                            x       y       z     vdW  Elec       q    Type
REMARK                         _______ _______ _______ _____ _____    ______ ____
ROOT
ATOM      1  C   UNL     1       0.351  -1.139   0.423  0.00  0.00    +0.280 C 
ATOM      2  O   UNL     1       0.107  -2.223   1.018  0.00  0.00    -0.267 OA
ATOM      3  N   UNL     1      -0.717  -0.229   0.119  0.00  0.00    -0.301 N 
ATOM      4  H   UNL     1      -0.492   0.642  -0.414  0.00  0.00    +0.150 HD
ENDROOT
BRANCH   1   9
ATOM      5  C   UNL     1       3.361   0.312  -0.783  0.00  0.00    +0.106 A 
ATOM      6  C   UNL     1       3.929  -0.842  -0.278  0.00  0.00    +0.048 A 
ATOM      7  C   UNL     1       2.878  -1.565   0.250  0.00  0.00    +0.000 A 
ATOM      8  C   UNL     1       2.983  -2.899   0.920  0.00  0.00    +0.048 C 
ATOM      9  C   UNL     1       1.736  -0.805   0.038  0.00  0.00    +0.192 A 
ATOM     10  O   UNL     1       2.063   0.309  -0.579  0.00  0.00    -0.455 OA
BRANCH   5  12
ATOM     11  C   UNL     1       4.529   2.468  -0.400  0.00  0.00    +0.012 C 
ATOM     12  C   UNL     1       4.101   1.436  -1.436  0.00  0.00    +0.071 C 
ENDBRANCH   5  12
ENDBRANCH   1   9
BRANCH   3  13
ATOM     13  C   UNL     1      -2.117  -0.535   0.429  0.00  0.00    +0.121 C 
BRANCH  13  14
ATOM     14  C   UNL     1      -2.901   0.743   0.586  0.00  0.00    +0.011 A 
ATOM     15  C   UNL     1      -3.099   1.720  -0.385  0.00  0.00    +0.013 A 
ATOM     16  C   UNL     1      -3.888   2.787   0.058  0.00  0.00    +0.008 A 
ATOM     17  C   UNL     1      -4.316   2.657   1.372  0.00  0.00    +0.045 A 
ATOM     18  S   UNL     1      -3.712   1.212   1.984  0.00  0.00    -0.100 S 
ENDBRANCH  13  14
BRANCH  13  19
ATOM     19  C   UNL     1      -2.712  -1.430  -0.672  0.00  0.00    +0.148 C 
BRANCH  19  20
ATOM     20  C   UNL     1      -4.104  -1.869  -0.332  0.00  0.00    +0.307 C 
ATOM     21  O   UNL     1      -4.286  -2.865   0.417  0.00  0.00    -0.251 OA
BRANCH  20  22
ATOM     22  O   UNL     1      -5.194  -1.148  -0.809  0.00  0.00    -0.481 OA
ATOM     23  H   UNL     1      -6.141  -1.420  -0.572  0.00  0.00    +0.295 HD
ENDBRANCH  20  22
ENDBRANCH  19  20
ENDBRANCH  13  19
ENDBRANCH   3  13
TORSDOF 7
