REMARK  Name = 
REMARK  3 active torsions:
REMARK  status: ('A' for Active; 'I' for Inactive)
REMARK    1  A    between atoms: C_2  and  C_3
REMARK    2  A    between atoms: N_6  and  S_9
REMARK    3  A    between atoms: S_9  and  C_12
REMARK                            x       y       z     vdW  Elec       q    Type
REMARK                         _______ _______ _______ _____ _____    ______ ____
ROOT
ATOM      1  C   UNL     1       0.838  -1.112  -0.057  0.00  0.00    +0.078 C 
ATOM      2  C   UNL     1       0.241   0.228   0.431  0.00  0.00    +0.030 C 
ATOM      3  C   UNL     1      -1.180   0.065   0.999  0.00  0.00    +0.110 C 
ATOM      4  N   UNL     1      -1.379  -1.307   1.492  0.00  0.00    -0.177 NA
ATOM      5  C   UNL     1      -1.391  -2.276   0.376  0.00  0.00    +0.110 C 
ATOM      6  C   UNL     1      -0.264  -2.009  -0.649  0.00  0.00    +0.030 C 
ENDROOT
BRANCH   1   8
ATOM      7  O   UNL     1       1.637  -0.540  -2.238  0.00  0.00    -0.275 OA
ATOM      8  C   UNL     1       1.946  -0.869  -1.060  0.00  0.00    +0.219 C 
ATOM      9  N   UNL     1       3.341  -0.986  -0.705  0.00  0.00    -0.301 N 
ATOM     10  C   UNL     1       4.313  -1.268  -1.772  0.00  0.00    +0.108 C 
ATOM     11  C   UNL     1       5.699  -1.598  -1.203  0.00  0.00    +0.023 C 
ATOM     12  C   UNL     1       6.203  -0.509  -0.227  0.00  0.00    -0.005 C 
ATOM     13  C   UNL     1       6.942   0.612  -0.995  0.00  0.00    +0.004 C 
ATOM     14  C   UNL     1       7.244   1.797  -0.074  0.00  0.00    +0.000 C 
ATOM     15  C   UNL     1       5.963   2.427   0.510  0.00  0.00    +0.000 C 
ATOM     16  C   UNL     1       4.728   1.514   0.421  0.00  0.00    +0.005 C 
ATOM     17  C   UNL     1       5.081   0.040   0.721  0.00  0.00    +0.010 C 
ATOM     18  C   UNL     1       3.809  -0.828   0.682  0.00  0.00    +0.111 C 
ENDBRANCH   1   8
BRANCH   4  19
ATOM     19  S   UNL     1      -2.865  -1.418   2.404  0.00  0.00    +0.061 S 
ATOM     20  O   UNL     1      -3.046  -2.830   2.887  0.00  0.00    -0.153 OA
ATOM     21  O   UNL     1      -2.782  -0.521   3.608  0.00  0.00    -0.153 OA
BRANCH  19  22
ATOM     22  C   UNL     1      -4.260  -0.947   1.430  0.00  0.00    +0.109 A 
ATOM     23  C   UNL     1      -5.068  -1.921   0.831  0.00  0.00    +0.032 A 
ATOM     24  C   UNL     1      -6.153  -1.544   0.036  0.00  0.00    +0.051 A 
ATOM     25  C   UNL     1      -6.438  -0.191  -0.176  0.00  0.00    +0.162 A 
ATOM     26  O   UNL     1      -7.454   0.145  -1.080  0.00  0.00    -0.488 OA
ATOM     27  C   UNL     1      -7.399   1.309  -1.902  0.00  0.00    +0.232 C 
ATOM     28  C   UNL     1      -7.830   2.570  -1.151  0.00  0.00    +0.082 C 
ATOM     29  C   UNL     1      -7.347   2.616   0.300  0.00  0.00    +0.232 C 
ATOM     30  O   UNL     1      -6.005   2.153   0.434  0.00  0.00    -0.488 OA
ATOM     31  C   UNL     1      -5.673   0.794   0.488  0.00  0.00    +0.164 A 
ATOM     32  C   UNL     1      -4.571   0.408   1.259  0.00  0.00    +0.078 A 
ENDBRANCH  19  22
ENDBRANCH   4  19
TORSDOF 3
