REMARK  Name = 
REMARK  7 active torsions:
REMARK  status: ('A' for Active; 'I' for Inactive)
REMARK    1  A    between atoms: C_1  and  N_2
REMARK    2  A    between atoms: N_2  and  C_3
REMARK    3  A    between atoms: N_2  and  C_14
REMARK    4  A    between atoms: C_3  and  C_4
REMARK    5  A    between atoms: C_4  and  N_5
REMARK    6  A    between atoms: C_9  and  C_10
REMARK    7  A    between atoms: C_9  and  C_11
REMARK                            x       y       z     vdW  Elec       q    Type
REMARK                         _______ _______ _______ _____ _____    ______ ____
ROOT
ATOM      1  C   UNL     1       0.654  -1.362  -0.289  0.00  0.00    +0.133 C 
ENDROOT
BRANCH   1   2
ATOM      2  N   UNL     1       1.973  -0.970   0.202  0.00  0.00    -0.223 N 
ATOM      3  C   UNL     1       2.309  -0.653   1.543  0.00  0.00    +0.309 C 
ATOM      4  O   UNL     1       1.593  -0.960   2.533  0.00  0.00    -0.252 OA
ATOM      5  N   UNL     1       3.524   0.074   1.655  0.00  0.00    -0.285 N 
ATOM      6  C   UNL     1       4.042   0.310   0.307  0.00  0.00    +0.107 C 
ATOM      7  C   UNL     1       4.109   1.815   0.024  0.00  0.00    +0.041 C 
ATOM      8  C   UNL     1       5.412  -0.357   0.142  0.00  0.00    +0.041 C 
ATOM      9  C   UNL     1       3.007  -0.357  -0.562  0.00  0.00    +0.246 C 
ATOM     10  O   UNL     1       3.027  -0.362  -1.822  0.00  0.00    -0.273 OA
ATOM     11  H   UNL     1       3.953   0.408   2.547  0.00  0.00    +0.151 HD
ENDBRANCH   1   2
BRANCH   1  12
ATOM     12  C   UNL     1      -0.249  -0.135  -0.434  0.00  0.00    +0.104 C 
BRANCH  12  14
ATOM     13  C   UNL     1      -1.653  -0.479  -2.371  0.00  0.00    +0.105 C 
ATOM     14  N   UNL     1      -1.597  -0.553  -0.896  0.00  0.00    -0.299 NA
BRANCH  14  15
ATOM     15  C   UNL     1      -2.676   0.252  -0.256  0.00  0.00    +0.079 C 
ATOM     16  C   UNL     1      -4.077  -0.053  -0.847  0.00  0.00    +0.043 C 
ATOM     17  C   UNL     1      -5.145   0.456   0.114  0.00  0.00    +0.167 C 
ATOM     18  S   UNL     1      -4.445   0.256   1.717  0.00  0.00    -0.029 S 
ATOM     19  O   UNL     1      -4.580   1.507   2.538  0.00  0.00    -0.174 OA
ATOM     20  O   UNL     1      -5.038  -0.922   2.438  0.00  0.00    -0.174 OA
ATOM     21  C   UNL     1      -2.766  -0.045   1.255  0.00  0.00    +0.184 C 
ENDBRANCH  14  15
ENDBRANCH  12  14
ENDBRANCH   1  12
TORSDOF 4
