REMARK  Name = 
REMARK  11 active torsions:
REMARK  status: ('A' for Active; 'I' for Inactive)
REMARK    1  A    between atoms: C_1  and  O_2
REMARK    2  A    between atoms: O_2  and  C_3
REMARK    3  A    between atoms: C_8  and  C_9
REMARK    4  A    between atoms: C_9  and  C_10
REMARK    5  A    between atoms: C_9  and  N_11
REMARK    6  A    between atoms: C_12  and  C_14
REMARK    7  A    between atoms: C_14  and  C_15
REMARK    8  A    between atoms: C_15  and  C_16
REMARK    9  A    between atoms: C_15  and  C_17
REMARK   10  A    between atoms: C_15  and  C_20
REMARK   11  A    between atoms: C_17  and  O_19
REMARK                            x       y       z     vdW  Elec       q    Type
REMARK                         _______ _______ _______ _____ _____    ______ ____
ROOT
ATOM      1  N   UNL     1       1.032   1.274  -0.503  0.00  0.00    -0.309 N 
ATOM      2  C   UNL     1      -0.219   1.544  -1.155  0.00  0.00    +0.215 C 
ATOM      3  O   UNL     1      -0.273   1.653  -2.410  0.00  0.00    -0.276 OA
ATOM      4  H   UNL     1       1.057   1.288   0.542  0.00  0.00    +0.149 HD
ENDROOT
BRANCH   1   5
ATOM      5  C   UNL     1       2.231   0.872  -1.244  0.00  0.00    +0.104 C 
ATOM      6  C   UNL     1       2.887   2.092  -1.905  0.00  0.00    +0.033 C 
BRANCH   5  12
ATOM      7  C   UNL     1       3.291  -1.278  -0.356  0.00  0.00    +0.125 A 
ATOM      8  C   UNL     1       4.161  -1.934   0.539  0.00  0.00    +0.046 A 
ATOM      9  C   UNL     1       4.899  -1.204   1.474  0.00  0.00    +0.004 A 
ATOM     10  C   UNL     1       4.776   0.182   1.532  0.00  0.00    +0.001 A 
ATOM     11  C   UNL     1       3.925   0.848   0.651  0.00  0.00    +0.009 A 
ATOM     12  C   UNL     1       3.191   0.134  -0.320  0.00  0.00    +0.014 A 
BRANCH   7  14
ATOM     13  C   UNL     1       2.507  -3.417  -1.408  0.00  0.00    +0.277 C 
ATOM     14  O   UNL     1       2.514  -1.998  -1.281  0.00  0.00    -0.495 OA
ENDBRANCH   7  14
ENDBRANCH   5  12
ENDBRANCH   1   5
BRANCH   2  15
ATOM     15  C   UNL     1      -1.484   1.673  -0.346  0.00  0.00    +0.118 C 
BRANCH  15  16
ATOM     16  C   UNL     1      -2.204   0.310  -0.086  0.00  0.00    +0.098 C 
ATOM     17  C   UNL     1      -2.694  -0.271  -1.435  0.00  0.00    +0.028 C 
BRANCH  16  18
ATOM     18  C   UNL     1      -3.436   0.452   0.833  0.00  0.00    -0.030 A 
ATOM     19  C   UNL     1      -4.012   1.703   1.161  0.00  0.00    +0.005 A 
ATOM     20  C   UNL     1      -5.141   1.779   1.984  0.00  0.00    +0.000 A 
ATOM     21  C   UNL     1      -5.728   0.615   2.480  0.00  0.00    +0.000 A 
ATOM     22  C   UNL     1      -5.193  -0.629   2.150  0.00  0.00    +0.000 A 
ATOM     23  C   UNL     1      -4.063  -0.713   1.333  0.00  0.00    +0.005 A 
ENDBRANCH  16  18
BRANCH  16  24
ATOM     24  C   UNL     1      -1.211  -0.638   0.573  0.00  0.00    +0.316 C 
ATOM     25  O   UNL     1      -0.911  -0.491   1.791  0.00  0.00    -0.250 OA
BRANCH  24  26
ATOM     26  O   UNL     1      -0.584  -1.640  -0.165  0.00  0.00    -0.480 OA
ATOM     27  H   UNL     1       0.087  -2.262   0.270  0.00  0.00    +0.295 HD
ENDBRANCH  24  26
ENDBRANCH  16  24
ENDBRANCH  15  16
ENDBRANCH   2  15
TORSDOF 8
