REMARK  Name = 
REMARK  9 active torsions:
REMARK  status: ('A' for Active; 'I' for Inactive)
REMARK    1  A    between atoms: C_1  and  C_2
REMARK    2  A    between atoms: C_2  and  O_3
REMARK    3  A    between atoms: O_3  and  C_4
REMARK    4  A    between atoms: C_7  and  S_10
REMARK    5  A    between atoms: S_10  and  N_13
REMARK    6  A    between atoms: N_13  and  C_14
REMARK    7  A    between atoms: C_18  and  C_20
REMARK    8  A    between atoms: N_22  and  C_23
REMARK    9  A    between atoms: C_26  and  C_27
REMARK                            x       y       z     vdW  Elec       q    Type
REMARK                         _______ _______ _______ _____ _____    ______ ____
ROOT
ATOM      1  C   UNL     1      -0.401   2.341   0.850  0.00  0.00    +0.049 A 
ATOM      2  C   UNL     1      -0.811   2.426  -0.492  0.00  0.00    +0.024 A 
ATOM      3  C   UNL     1      -0.042   1.847  -1.502  0.00  0.00    +0.003 A 
ATOM      4  C   UNL     1       1.142   1.178  -1.190  0.00  0.00    +0.013 A 
ATOM      5  C   UNL     1       1.572   1.078   0.144  0.00  0.00    +0.039 A 
ATOM      6  C   UNL     1       0.797   1.675   1.155  0.00  0.00    +0.037 A 
ENDROOT
BRANCH   5   7
ATOM      7  C   UNL     1       2.839   0.385   0.487  0.00  0.00    +0.249 C 
ATOM      8  O   UNL     1       3.403   0.637   1.587  0.00  0.00    -0.270 OA
ATOM      9  N   UNL     1       3.413  -0.588  -0.404  0.00  0.00    -0.266 N 
ATOM     10  H   UNL     1       2.790  -1.050  -1.104  0.00  0.00    +0.157 HD
BRANCH   9  11
ATOM     11  C   UNL     1       4.796  -0.980  -0.369  0.00  0.00    +0.125 A 
ATOM     12  C   UNL     1       5.250  -2.020  -1.193  0.00  0.00    +0.044 A 
ATOM     13  C   UNL     1       6.598  -2.384  -1.165  0.00  0.00    +0.008 A 
ATOM     14  C   UNL     1       7.487  -1.718  -0.311  0.00  0.00    -0.032 A 
ATOM     15  C   UNL     1       8.943  -2.078  -0.298  0.00  0.00    +0.045 C 
ATOM     16  C   UNL     1       7.001  -0.666   0.480  0.00  0.00    +0.116 A 
ATOM     17  N   UNL     1       5.685  -0.329   0.434  0.00  0.00    -0.240 NA
ENDBRANCH   9  11
ENDBRANCH   5   7
BRANCH   1  18
ATOM     18  N   UNL     1      -1.169   2.927   1.916  0.00  0.00    -0.216 N 
ATOM     19  H   UNL     1      -0.764   2.953   2.879  0.00  0.00    +0.174 HD
BRANCH  18  20
ATOM     20  S   UNL     1      -2.815   3.450   1.743  0.00  0.00    +0.072 S 
ATOM     21  O   UNL     1      -2.855   4.681   0.881  0.00  0.00    -0.150 OA
ATOM     22  O   UNL     1      -3.376   3.787   3.096  0.00  0.00    -0.150 OA
BRANCH  20  26
ATOM     23  C   UNL     1      -5.266   0.057  -0.102  0.00  0.00    +0.121 A 
ATOM     24  C   UNL     1      -5.338   1.351  -0.635  0.00  0.00    +0.047 A 
ATOM     25  C   UNL     1      -4.601   2.395  -0.069  0.00  0.00    +0.032 A 
ATOM     26  C   UNL     1      -3.777   2.154   1.039  0.00  0.00    +0.109 A 
ATOM     27  C   UNL     1      -3.703   0.864   1.579  0.00  0.00    +0.032 A 
ATOM     28  C   UNL     1      -4.441  -0.181   1.015  0.00  0.00    +0.047 A 
BRANCH  23  29
ATOM     29  O   UNL     1      -6.025  -0.955  -0.707  0.00  0.00    -0.492 OA
BRANCH  29  31
ATOM     30  C   UNL     1      -6.980  -3.115  -1.165  0.00  0.00    +0.048 C 
ATOM     31  C   UNL     1      -6.060  -2.309  -0.262  0.00  0.00    +0.225 C 
ENDBRANCH  29  31
ENDBRANCH  23  29
ENDBRANCH  20  26
ENDBRANCH  18  20
ENDBRANCH   1  18
TORSDOF 7
