REMARK  Name = 
REMARK  7 active torsions:
REMARK  status: ('A' for Active; 'I' for Inactive)
REMARK    1  A    between atoms: C_2  and  C_3
REMARK    2  A    between atoms: C_3  and  O_4
REMARK    3  A    between atoms: O_4  and  C_5
REMARK    4  A    between atoms: N_12  and  C_13
REMARK    5  A    between atoms: C_16  and  S_19
REMARK    6  A    between atoms: S_19  and  N_22
REMARK    7  A    between atoms: N_22  and  C_23
REMARK                            x       y       z     vdW  Elec       q    Type
REMARK                         _______ _______ _______ _____ _____    ______ ____
ROOT
ATOM      1  C   UNL     1       0.127  -1.048  -1.232  0.00  0.00    +0.034 A 
ATOM      2  C   UNL     1      -0.717  -1.811  -0.405  0.00  0.00    +0.025 A 
ATOM      3  C   UNL     1      -2.034  -2.073  -0.791  0.00  0.00    +0.030 A 
ATOM      4  C   UNL     1      -2.522  -1.587  -2.010  0.00  0.00    +0.109 A 
ATOM      5  C   UNL     1      -1.676  -0.853  -2.851  0.00  0.00    +0.030 A 
ATOM      6  C   UNL     1      -0.358  -0.592  -2.467  0.00  0.00    +0.025 A 
ENDROOT
BRANCH   1   9
ATOM      7  O   UNL     1       1.113  -0.383   1.413  0.00  0.00    -0.272 OA
ATOM      8  C   UNL     1       1.941  -0.568   0.480  0.00  0.00    +0.255 C 
ATOM      9  N   UNL     1       1.492  -0.777  -0.868  0.00  0.00    -0.283 N 
ATOM     10  H   UNL     1       2.186  -0.633  -1.637  0.00  0.00    +0.155 HD
BRANCH   8  11
ATOM     11  C   UNL     1       3.403  -0.465   0.769  0.00  0.00    +0.325 C 
BRANCH  11  12
ATOM     12  O   UNL     1       3.843   0.858   0.475  0.00  0.00    -0.480 OA
BRANCH  12  13
ATOM     13  C   UNL     1       5.165   1.304   0.617  0.00  0.00    +0.156 A 
ATOM     14  C   UNL     1       6.200   0.465   1.077  0.00  0.00    +0.048 A 
ATOM     15  C   UNL     1       7.503   0.958   1.200  0.00  0.00    +0.004 A 
ATOM     16  C   UNL     1       7.786   2.285   0.868  0.00  0.00    +0.003 A 
ATOM     17  C   UNL     1       6.765   3.123   0.412  0.00  0.00    +0.042 A 
ATOM     18  C   UNL     1       5.460   2.635   0.287  0.00  0.00    +0.165 A 
ATOM     19  F   UNL     1       4.477   3.458  -0.156  0.00  0.00    -0.202 F 
ENDBRANCH  12  13
ENDBRANCH  11  12
ENDBRANCH   8  11
ENDBRANCH   1   9
BRANCH   4  20
ATOM     20  S   UNL     1      -4.191  -1.903  -2.476  0.00  0.00    +0.072 S 
ATOM     21  O   UNL     1      -4.649  -0.922  -3.519  0.00  0.00    -0.150 OA
ATOM     22  O   UNL     1      -4.279  -3.293  -3.041  0.00  0.00    -0.150 OA
BRANCH  20  23
ATOM     23  N   UNL     1      -5.226  -1.782  -1.089  0.00  0.00    -0.216 N 
ATOM     24  H   UNL     1      -5.794  -2.625  -0.848  0.00  0.00    +0.174 HD
BRANCH  23  25
ATOM     25  C   UNL     1      -5.262  -0.642  -0.210  0.00  0.00    +0.049 A 
ATOM     26  C   UNL     1      -4.625   0.571  -0.538  0.00  0.00    +0.024 A 
ATOM     27  C   UNL     1      -4.674   1.655   0.344  0.00  0.00    +0.003 A 
ATOM     28  C   UNL     1      -5.360   1.544   1.555  0.00  0.00    +0.020 A 
ATOM     29  C   UNL     1      -6.002   0.348   1.887  0.00  0.00    +0.043 A 
ATOM     30 CL   UNL     1      -6.865   0.210   3.408  0.00  0.00    -0.083 Cl
ATOM     31  C   UNL     1      -5.954  -0.739   1.008  0.00  0.00    +0.044 A 
ENDBRANCH  23  25
ENDBRANCH  20  23
ENDBRANCH   4  20
TORSDOF 7
