REMARK  Name = 
REMARK  8 active torsions:
REMARK  status: ('A' for Active; 'I' for Inactive)
REMARK    1  A    between atoms: C_2  and  C_4
REMARK    2  A    between atoms: C_7  and  O_10
REMARK    3  A    between atoms: O_10  and  C_11
REMARK    4  A    between atoms: C_11  and  C_12
REMARK    5  A    between atoms: N_14  and  C_15
REMARK    6  A    between atoms: C_15  and  C_16
REMARK    7  A    between atoms: C_16  and  C_17
REMARK    8  A    between atoms: C_17  and  C_18
REMARK                            x       y       z     vdW  Elec       q    Type
REMARK                         _______ _______ _______ _____ _____    ______ ____
ROOT
ATOM      1  C   UNL     1      -0.153   0.193   0.733  0.00  0.00    +0.251 C 
ATOM      2  O   UNL     1      -0.889   1.206   0.581  0.00  0.00    -0.272 OA
ATOM      3  N   UNL     1      -0.718  -1.125   0.708  0.00  0.00    -0.313 N 
ATOM      4  H   UNL     1      -0.077  -1.950   0.743  0.00  0.00    +0.149 HD
ENDROOT
BRANCH   1   5
ATOM      5  C   UNL     1       1.322   0.370   0.888  0.00  0.00    +0.324 C 
BRANCH   5   6
ATOM      6  O   UNL     1       1.959   0.100  -0.357  0.00  0.00    -0.483 OA
BRANCH   6  10
ATOM      7  C   UNL     1       6.116   0.269  -1.099  0.00  0.00    +0.037 A 
ATOM      8  C   UNL     1       5.623   0.554   0.188  0.00  0.00    +0.016 A 
ATOM      9  C   UNL     1       4.250   0.504   0.450  0.00  0.00    +0.046 A 
ATOM     10  C   UNL     1       3.344   0.162  -0.570  0.00  0.00    +0.121 A 
ATOM     11  C   UNL     1       3.834  -0.131  -1.847  0.00  0.00    +0.046 A 
ATOM     12  C   UNL     1       5.205  -0.083  -2.110  0.00  0.00    +0.016 A 
BRANCH   7  14
ATOM     13  N   UNL     1       8.472   1.082  -0.595  0.00  0.00    -0.325 N 
ATOM     14  C   UNL     1       7.570   0.312  -1.393  0.00  0.00    +0.242 C 
ATOM     15  O   UNL     1       8.026  -0.332  -2.376  0.00  0.00    -0.270 OA
ATOM     16  H   UNL     1       9.498   1.047  -0.789  0.00  0.00    +0.145 HD
ATOM     17  H   UNL     1       8.132   1.755   0.127  0.00  0.00    +0.145 HD
ENDBRANCH   7  14
ENDBRANCH   6  10
ENDBRANCH   5   6
ENDBRANCH   1   5
BRANCH   3  18
ATOM     18  C   UNL     1      -2.152  -1.363   0.557  0.00  0.00    +0.104 C 
BRANCH  18  19
ATOM     19  C   UNL     1      -2.888  -1.043   1.865  0.00  0.00    +0.023 C 
BRANCH  19  20
ATOM     20  C   UNL     1      -4.386  -1.369   1.787  0.00  0.00    +0.036 C 
BRANCH  20  21
ATOM     21  C   UNL     1      -5.112  -0.457   0.831  0.00  0.00    -0.047 A 
ATOM     22  C   UNL     1      -5.433  -0.894  -0.465  0.00  0.00    +0.005 A 
ATOM     23  C   UNL     1      -6.082  -0.035  -1.357  0.00  0.00    +0.020 A 
ATOM     24  C   UNL     1      -6.411   1.267  -0.965  0.00  0.00    +0.041 A 
ATOM     25 CL   UNL     1      -7.223   2.344  -2.086  0.00  0.00    -0.084 Cl
ATOM     26  C   UNL     1      -6.089   1.710   0.322  0.00  0.00    +0.020 A 
ATOM     27  C   UNL     1      -5.439   0.853   1.216  0.00  0.00    +0.005 A 
ENDBRANCH  20  21
ENDBRANCH  19  20
ENDBRANCH  18  19
ENDBRANCH   3  18
TORSDOF 8
