REMARK  Name = 
REMARK  6 active torsions:
REMARK  status: ('A' for Active; 'I' for Inactive)
REMARK    1  A    between atoms: C_1  and  N_2
REMARK    2  A    between atoms: N_2  and  S_3
REMARK    3  A    between atoms: S_3  and  C_6
REMARK    4  A    between atoms: C_11  and  C_13
REMARK    5  A    between atoms: C_15  and  C_21
REMARK    6  A    between atoms: C_17  and  C_18
REMARK                            x       y       z     vdW  Elec       q    Type
REMARK                         _______ _______ _______ _____ _____    ______ ____
ROOT
ATOM      1  C   UNL     1       0.928  -1.335  -0.279  0.00  0.00    +0.167 A 
ATOM      2  N   UNL     1       1.395  -0.126  -0.647  0.00  0.00    -0.204 NA
ATOM      3  C   UNL     1       2.731  -0.306  -0.728  0.00  0.00    +0.228 A 
ATOM      4  O   UNL     1       3.092  -1.538  -0.440  0.00  0.00    -0.439 OA
ATOM      5  C   UNL     1       2.000  -2.201  -0.154  0.00  0.00    +0.141 A 
ENDROOT
BRANCH   1  11
ATOM      6  C   UNL     1      -3.644   0.412   0.025  0.00  0.00    +0.167 C 
ATOM      7  C   UNL     1      -2.601   1.411   0.526  0.00  0.00    +0.048 C 
ATOM      8  C   UNL     1      -1.256   0.790   0.172  0.00  0.00    +0.110 C 
ATOM      9  N   UNL     1      -1.517  -0.631  -0.009  0.00  0.00    -0.294 N 
ATOM     10  C   UNL     1      -2.937  -0.940   0.033  0.00  0.00    +0.136 C 
ATOM     11  C   UNL     1      -0.507  -1.655  -0.092  0.00  0.00    +0.268 C 
ATOM     12  O   UNL     1      -0.855  -2.865  -0.015  0.00  0.00    -0.268 OA
BRANCH   6  13
ATOM     13  S   UNL     1      -5.143   0.405   1.015  0.00  0.00    +0.034 S 
ATOM     14  O   UNL     1      -4.803   0.192   2.466  0.00  0.00    -0.158 OA
ATOM     15  O   UNL     1      -6.013  -0.730   0.554  0.00  0.00    -0.158 OA
BRANCH  13  17
ATOM     16  C   UNL     1      -5.638   2.873   1.809  0.00  0.00    +0.127 C 
ATOM     17  N   UNL     1      -6.023   1.892   0.797  0.00  0.00    -0.197 NA
ATOM     18  H   UNL     1      -5.761   2.277  -0.139  0.00  0.00    +0.147 HD
ENDBRANCH  13  17
ENDBRANCH   6  13
ENDBRANCH   1  11
BRANCH   3  19
ATOM     19  C   UNL     1       3.681   0.761  -1.099  0.00  0.00    +0.037 A 
ATOM     20  C   UNL     1       5.059   0.489  -1.165  0.00  0.00    +0.013 A 
ATOM     21  C   UNL     1       5.961   1.498  -1.516  0.00  0.00    +0.001 A 
ATOM     22  C   UNL     1       5.497   2.785  -1.802  0.00  0.00    +0.000 A 
ATOM     23  C   UNL     1       4.130   3.064  -1.739  0.00  0.00    +0.001 A 
ATOM     24  C   UNL     1       3.224   2.059  -1.389  0.00  0.00    +0.013 A 
ENDBRANCH   3  19
BRANCH   5  25
ATOM     25  C   UNL     1       1.968  -3.653   0.219  0.00  0.00    +0.058 C 
ATOM     26  C   UNL     1       3.079  -4.094   1.160  0.00  0.00    +0.012 C 
ATOM     27  C   UNL     1       1.665  -3.917   1.686  0.00  0.00    +0.012 C 
ENDBRANCH   5  25
TORSDOF 5
