REMARK  Name = 
REMARK  11 active torsions:
REMARK  status: ('A' for Active; 'I' for Inactive)
REMARK    1  A    between atoms: C_1  and  C_2
REMARK    2  A    between atoms: C_5  and  N_8
REMARK    3  A    between atoms: N_8  and  S_9
REMARK    4  A    between atoms: S_9  and  C_12
REMARK    5  A    between atoms: C_16  and  C_18
REMARK    6  A    between atoms: N_20  and  C_21
REMARK    7  A    between atoms: C_21  and  C_22
REMARK    8  A    between atoms: C_22  and  C_23
REMARK    9  A    between atoms: C_22  and  N_29
REMARK   10  A    between atoms: N_29  and  C_30
REMARK   11  A    between atoms: N_29  and  C_31
REMARK                            x       y       z     vdW  Elec       q    Type
REMARK                         _______ _______ _______ _____ _____    ______ ____
ROOT
ATOM      1  C   UNL     1       1.760  -0.392   2.725  0.00  0.00    +0.109 A 
ATOM      2  C   UNL     1       2.474  -1.411   3.371  0.00  0.00    +0.029 A 
ATOM      3  C   UNL     1       1.951  -2.703   3.428  0.00  0.00    +0.003 A 
ATOM      4  C   UNL     1       0.709  -2.985   2.852  0.00  0.00    +0.013 A 
ATOM      5  C   UNL     1      -0.029  -1.970   2.215  0.00  0.00    +0.039 A 
ATOM      6  C   UNL     1       0.516  -0.676   2.142  0.00  0.00    +0.041 A 
ENDROOT
BRANCH   5   7
ATOM      7  C   UNL     1      -1.354  -2.273   1.623  0.00  0.00    +0.244 C 
ATOM      8  O   UNL     1      -1.652  -3.468   1.348  0.00  0.00    -0.270 OA
ATOM      9  N   UNL     1      -2.310  -1.226   1.390  0.00  0.00    -0.310 N 
ATOM     10  H   UNL     1      -2.201  -0.325   1.905  0.00  0.00    +0.149 HD
BRANCH   9  11
ATOM     11  C   UNL     1      -3.539  -1.414   0.614  0.00  0.00    +0.128 C 
BRANCH  11  12
ATOM     12  C   UNL     1      -3.601  -0.455  -0.607  0.00  0.00    +0.103 C 
BRANCH  12  13
ATOM     13  C   UNL     1      -3.722   0.976  -0.096  0.00  0.00    -0.029 A 
ATOM     14  C   UNL     1      -4.995   1.522   0.156  0.00  0.00    +0.005 A 
ATOM     15  C   UNL     1      -5.122   2.823   0.644  0.00  0.00    +0.000 A 
ATOM     16  C   UNL     1      -3.981   3.591   0.893  0.00  0.00    +0.000 A 
ATOM     17  C   UNL     1      -2.713   3.055   0.663  0.00  0.00    +0.000 A 
ATOM     18  C   UNL     1      -2.581   1.752   0.184  0.00  0.00    +0.005 A 
ENDBRANCH  12  13
BRANCH  12  19
ATOM     19  N   UNL     1      -2.441  -0.608  -1.538  0.00  0.00    -0.300 NA
ATOM     20  C   UNL     1      -2.279  -2.005  -1.989  0.00  0.00    +0.105 C 
ATOM     21  C   UNL     1      -2.618   0.237  -2.739  0.00  0.00    +0.105 C 
ENDBRANCH  12  19
ENDBRANCH  11  12
ENDBRANCH   9  11
ENDBRANCH   5   7
BRANCH   1  22
ATOM     22  S   UNL     1       2.405   1.242   2.629  0.00  0.00    +0.072 S 
ATOM     23  O   UNL     1       1.498   2.165   3.391  0.00  0.00    -0.150 OA
ATOM     24  O   UNL     1       3.782   1.319   3.227  0.00  0.00    -0.150 OA
BRANCH  22  25
ATOM     25  N   UNL     1       2.468   1.743   0.969  0.00  0.00    -0.216 N 
ATOM     26  H   UNL     1       1.825   2.513   0.681  0.00  0.00    +0.174 HD
BRANCH  25  31
ATOM     27  C   UNL     1       5.922  -0.474  -3.066  0.00  0.00    +0.044 C 
ATOM     28  C   UNL     1       5.042   0.108  -1.999  0.00  0.00    -0.050 A 
ATOM     29  C   UNL     1       4.163   1.154  -2.305  0.00  0.00    +0.005 A 
ATOM     30  C   UNL     1       3.323   1.682  -1.323  0.00  0.00    +0.025 A 
ATOM     31  C   UNL     1       3.340   1.167  -0.017  0.00  0.00    +0.048 A 
ATOM     32  C   UNL     1       4.203   0.096   0.282  0.00  0.00    +0.025 A 
ATOM     33  C   UNL     1       5.044  -0.430  -0.700  0.00  0.00    +0.005 A 
ENDBRANCH  25  31
ENDBRANCH  22  25
ENDBRANCH   1  22
TORSDOF 8
