REMARK  Name = 
REMARK  10 active torsions:
REMARK  status: ('A' for Active; 'I' for Inactive)
REMARK    1  A    between atoms: C_1  and  C_2
REMARK    2  A    between atoms: N_4  and  C_5
REMARK    3  A    between atoms: C_8  and  N_11
REMARK    4  A    between atoms: C_12  and  C_14
REMARK    5  A    between atoms: C_17  and  C_20
REMARK    6  A    between atoms: C_20  and  N_21
REMARK    7  A    between atoms: N_21  and  S_22
REMARK    8  A    between atoms: S_22  and  C_25
REMARK    9  A    between atoms: C_28  and  C_29
REMARK   10  A    between atoms: C_30  and  C_31
REMARK                            x       y       z     vdW  Elec       q    Type
REMARK                         _______ _______ _______ _____ _____    ______ ____
ROOT
ATOM      1  C   UNL     1       1.210   0.181   0.892  0.00  0.00    +0.037 A 
ATOM      2  C   UNL     1       0.364   0.464  -0.196  0.00  0.00    +0.013 A 
ATOM      3  C   UNL     1      -0.992   0.127  -0.143  0.00  0.00    +0.006 A 
ATOM      4  C   UNL     1      -1.528  -0.487   0.998  0.00  0.00    -0.032 A 
ATOM      5  C   UNL     1      -0.687  -0.773   2.083  0.00  0.00    +0.006 A 
ATOM      6  C   UNL     1       0.668  -0.431   2.036  0.00  0.00    +0.013 A 
ENDROOT
BRANCH   1   8
ATOM      7  N   UNL     1       3.398   0.496  -0.369  0.00  0.00    -0.282 N 
ATOM      8  C   UNL     1       2.649   0.533   0.861  0.00  0.00    +0.248 C 
ATOM      9  O   UNL     1       3.215   0.876   1.935  0.00  0.00    -0.270 OA
ATOM     10  H   UNL     1       2.885   0.366  -1.269  0.00  0.00    +0.155 HD
BRANCH   7  14
ATOM     11  C   UNL     1       7.620   0.963  -0.713  0.00  0.00    +0.033 A 
ATOM     12  C   UNL     1       7.072   0.337   0.421  0.00  0.00    +0.025 A 
ATOM     13  C   UNL     1       5.687   0.177   0.541  0.00  0.00    +0.025 A 
ATOM     14  C   UNL     1       4.823   0.672  -0.453  0.00  0.00    +0.034 A 
ATOM     15  C   UNL     1       5.372   1.297  -1.582  0.00  0.00    +0.025 A 
ATOM     16  C   UNL     1       6.755   1.454  -1.703  0.00  0.00    +0.025 A 
BRANCH  11  20
ATOM     17  C   UNL     1      11.481   0.636  -0.418  0.00  0.00    +0.109 C 
ATOM     18  C   UNL     1      10.037   0.256  -0.350  0.00  0.00    +0.214 C 
ATOM     19  O   UNL     1       9.721  -0.888   0.075  0.00  0.00    -0.276 OA
ATOM     20  N   UNL     1       9.038   1.155  -0.860  0.00  0.00    -0.286 N 
ATOM     21  H   UNL     1       9.364   1.948  -1.460  0.00  0.00    +0.155 HD
ENDBRANCH  11  20
ENDBRANCH   7  14
ENDBRANCH   1   8
BRANCH   4  22
ATOM     22  C   UNL     1      -2.980  -0.879   1.033  0.00  0.00    +0.141 C 
BRANCH  22  23
ATOM     23  N   UNL     1      -3.187  -2.093   0.240  0.00  0.00    -0.186 NA
ATOM     24  H   UNL     1      -2.621  -2.863   0.667  0.00  0.00    +0.148 HD
BRANCH  23  25
ATOM     25  S   UNL     1      -4.849  -2.588   0.343  0.00  0.00    +0.059 S 
ATOM     26  O   UNL     1      -5.169  -2.992   1.756  0.00  0.00    -0.153 OA
ATOM     27  O   UNL     1      -5.066  -3.775  -0.552  0.00  0.00    -0.153 OA
BRANCH  25  28
ATOM     28  C   UNL     1      -5.917  -1.281  -0.168  0.00  0.00    +0.106 A 
ATOM     29  C   UNL     1      -6.071  -1.000  -1.529  0.00  0.00    +0.029 A 
ATOM     30  C   UNL     1      -6.898   0.045  -1.943  0.00  0.00    +0.005 A 
ATOM     31  C   UNL     1      -7.583   0.832  -1.000  0.00  0.00    -0.047 A 
ATOM     32  C   UNL     1      -8.468   1.955  -1.477  0.00  0.00    +0.044 C 
ATOM     33  C   UNL     1      -7.429   0.553   0.380  0.00  0.00    -0.046 A 
ATOM     34  C   UNL     1      -8.137   1.374   1.427  0.00  0.00    +0.044 C 
ATOM     35  C   UNL     1      -6.590  -0.502   0.782  0.00  0.00    +0.032 A 
ENDBRANCH  25  28
ENDBRANCH  23  25
ENDBRANCH  22  23
ENDBRANCH   4  22
TORSDOF 7
