REMARK  Name = 
REMARK  7 active torsions:
REMARK  status: ('A' for Active; 'I' for Inactive)
REMARK    1  A    between atoms: C_2  and  C_13
REMARK    2  A    between atoms: N_3  and  C_4
REMARK    3  A    between atoms: C_4  and  C_5
REMARK    4  A    between atoms: C_5  and  C_6
REMARK    5  A    between atoms: C_16  and  N_19
REMARK    6  A    between atoms: N_19  and  S_20
REMARK    7  A    between atoms: S_20  and  C_23
REMARK                            x       y       z     vdW  Elec       q    Type
REMARK                         _______ _______ _______ _____ _____    ______ ____
ROOT
ATOM      1  C   UNL     1       0.267  -0.565  -0.458  0.00  0.00    +0.037 A 
ATOM      2  C   UNL     1       1.155  -0.665   0.626  0.00  0.00    +0.015 A 
ATOM      3  C   UNL     1       2.401  -1.278   0.473  0.00  0.00    +0.025 A 
ATOM      4  C   UNL     1       2.793  -1.794  -0.775  0.00  0.00    +0.048 A 
ATOM      5  C   UNL     1       1.910  -1.688  -1.859  0.00  0.00    +0.025 A 
ATOM      6  C   UNL     1       0.662  -1.076  -1.707  0.00  0.00    +0.015 A 
ENDROOT
BRANCH   1   8
ATOM      7  O   UNL     1      -1.192   0.944   0.643  0.00  0.00    -0.270 OA
ATOM      8  C   UNL     1      -1.050   0.092  -0.277  0.00  0.00    +0.244 C 
ATOM      9  N   UNL     1      -2.169  -0.236  -1.118  0.00  0.00    -0.311 N 
ATOM     10  H   UNL     1      -2.088  -1.004  -1.821  0.00  0.00    +0.149 HD
BRANCH   9  11
ATOM     11  C   UNL     1      -3.457   0.447  -1.008  0.00  0.00    +0.109 C 
BRANCH  11  12
ATOM     12  C   UNL     1      -4.243  -0.085   0.193  0.00  0.00    +0.054 C 
BRANCH  12  13
ATOM     13  C   UNL     1      -5.577   0.604   0.300  0.00  0.00    -0.043 A 
ATOM     14  C   UNL     1      -5.700   1.800   1.026  0.00  0.00    +0.004 A 
ATOM     15  C   UNL     1      -6.933   2.456   1.099  0.00  0.00    +0.003 A 
ATOM     16  C   UNL     1      -8.047   1.929   0.440  0.00  0.00    +0.038 A 
ATOM     17  C   UNL     1      -7.929   0.746  -0.296  0.00  0.00    +0.124 A 
ATOM     18  F   UNL     1      -9.009   0.239  -0.940  0.00  0.00    -0.205 F 
ATOM     19  C   UNL     1      -6.698   0.087  -0.371  0.00  0.00    +0.042 A 
ENDBRANCH  12  13
ENDBRANCH  11  12
ENDBRANCH   9  11
ENDBRANCH   1   8
BRANCH   4  20
ATOM     20  N   UNL     1       4.071  -2.426  -0.971  0.00  0.00    -0.216 N 
ATOM     21  H   UNL     1       4.276  -2.882  -1.888  0.00  0.00    +0.174 HD
BRANCH  20  22
ATOM     22  S   UNL     1       5.365  -2.373   0.184  0.00  0.00    +0.072 S 
ATOM     23  O   UNL     1       4.976  -3.174   1.395  0.00  0.00    -0.150 OA
ATOM     24  O   UNL     1       6.599  -2.977  -0.425  0.00  0.00    -0.150 OA
BRANCH  22  25
ATOM     25  C   UNL     1       5.711  -0.703   0.624  0.00  0.00    +0.111 A 
ATOM     26  C   UNL     1       5.691   0.296  -0.359  0.00  0.00    +0.032 A 
ATOM     27  C   UNL     1       5.955   1.625  -0.015  0.00  0.00    +0.043 A 
ATOM     28  C   UNL     1       6.242   1.962   1.311  0.00  0.00    +0.159 A 
ATOM     29  F   UNL     1       6.498   3.252   1.641  0.00  0.00    -0.202 F 
ATOM     30  C   UNL     1       6.268   0.968   2.295  0.00  0.00    +0.160 A 
ATOM     31  F   UNL     1       6.547   1.292   3.582  0.00  0.00    -0.202 F 
ATOM     32  C   UNL     1       6.004  -0.363   1.953  0.00  0.00    +0.070 A 
ENDBRANCH  22  25
ENDBRANCH  20  22
ENDBRANCH   4  20
TORSDOF 7
