REMARK  Name = 
REMARK  9 active torsions:
REMARK  status: ('A' for Active; 'I' for Inactive)
REMARK    1  A    between atoms: C_1  and  O_2
REMARK    2  A    between atoms: O_2  and  C_3
REMARK    3  A    between atoms: C_5  and  C_13
REMARK    4  A    between atoms: C_7  and  O_8
REMARK    5  A    between atoms: O_8  and  C_9
REMARK    6  A    between atoms: C_10  and  O_11
REMARK    7  A    between atoms: O_11  and  C_12
REMARK    8  A    between atoms: N_15  and  C_16
REMARK    9  A    between atoms: C_21  and  C_22
REMARK                            x       y       z     vdW  Elec       q    Type
REMARK                         _______ _______ _______ _____ _____    ______ ____
ROOT
ATOM      1  C   UNL     1      -0.404   0.898   0.311  0.00  0.00    +0.248 C 
ATOM      2  O   UNL     1       0.158   2.025   0.391  0.00  0.00    -0.270 OA
ATOM      3  N   UNL     1       0.391  -0.303   0.298  0.00  0.00    -0.281 N 
ATOM      4  H   UNL     1      -0.074  -1.220   0.116  0.00  0.00    +0.155 HD
ENDROOT
BRANCH   3   5
ATOM      5  C   UNL     1       1.820  -0.320   0.456  0.00  0.00    +0.036 A 
ATOM      6  C   UNL     1       2.466   0.525   1.377  0.00  0.00    +0.027 A 
ATOM      7  C   UNL     1       3.855   0.470   1.533  0.00  0.00    +0.049 A 
ATOM      8  C   UNL     1       4.610  -0.430   0.777  0.00  0.00    +0.143 A 
ATOM      9  O   UNL     1       6.000  -0.485   0.937  0.00  0.00    -0.478 OA
ATOM     10  C   UNL     1       6.872  -1.131   0.000  0.00  0.00    +0.256 C 
ATOM     11  C   UNL     1       7.359  -0.108  -1.024  0.00  0.00    +0.062 C 
ATOM     12  C   UNL     1       6.177  -2.271  -0.699  0.00  0.00    +0.258 C 
ATOM     13  O   UNL     1       6.853  -3.200  -1.216  0.00  0.00    -0.271 OA
ATOM     14  N   UNL     1       4.753  -2.263  -0.834  0.00  0.00    -0.279 N 
ATOM     15  C   UNL     1       3.972  -1.300  -0.119  0.00  0.00    +0.077 A 
ATOM     16  C   UNL     1       2.580  -1.248  -0.271  0.00  0.00    +0.050 A 
ATOM     17  H   UNL     1       4.286  -2.985  -1.428  0.00  0.00    +0.155 HD
ENDBRANCH   3   5
BRANCH   1  20
ATOM     18  C   UNL     1      -4.058   1.785   0.795  0.00  0.00    +0.166 A 
ATOM     19  C   UNL     1      -2.655   1.817   0.864  0.00  0.00    +0.062 A 
ATOM     20  C   UNL     1      -1.883   0.839   0.223  0.00  0.00    +0.044 A 
ATOM     21  C   UNL     1      -2.528  -0.163  -0.515  0.00  0.00    +0.062 A 
ATOM     22  C   UNL     1      -3.934  -0.215  -0.598  0.00  0.00    +0.166 A 
ATOM     23  C   UNL     1      -4.704   0.771   0.070  0.00  0.00    +0.204 A 
BRANCH  18  25
ATOM     24  C   UNL     1      -4.346   3.834   2.209  0.00  0.00    +0.277 C 
ATOM     25  O   UNL     1      -4.853   2.748   1.439  0.00  0.00    -0.491 OA
ENDBRANCH  18  25
BRANCH  22  26
ATOM     26  O   UNL     1      -4.574  -1.223  -1.336  0.00  0.00    -0.491 OA
ATOM     27  C   UNL     1      -3.912  -2.268  -2.042  0.00  0.00    +0.277 C 
ENDBRANCH  22  26
BRANCH  23  28
ATOM     28  O   UNL     1      -6.112   0.806   0.055  0.00  0.00    -0.488 OA
ATOM     29  C   UNL     1      -6.978  -0.113  -0.602  0.00  0.00    +0.277 C 
ENDBRANCH  23  28
ENDBRANCH   1  20
TORSDOF 5
