REMARK  Name = 
REMARK  9 active torsions:
REMARK  status: ('A' for Active; 'I' for Inactive)
REMARK    1  A    between atoms: C_1  and  C_2
REMARK    2  A    between atoms: C_5  and  N_8
REMARK    3  A    between atoms: N_8  and  S_9
REMARK    4  A    between atoms: S_9  and  C_12
REMARK    5  A    between atoms: C_15  and  C_18
REMARK    6  A    between atoms: N_20  and  C_21
REMARK    7  A    between atoms: C_21  and  C_22
REMARK    8  A    between atoms: C_22  and  C_23
REMARK    9  A    between atoms: C_22  and  N_29
REMARK                            x       y       z     vdW  Elec       q    Type
REMARK                         _______ _______ _______ _____ _____    ______ ____
ROOT
ATOM      1  C   UNL     1       2.557  -1.356  -0.436  0.00  0.00    +0.109 A 
ATOM      2  C   UNL     1       1.846  -1.481   0.763  0.00  0.00    +0.029 A 
ATOM      3  C   UNL     1       0.719  -0.689   1.000  0.00  0.00    +0.015 A 
ATOM      4  C   UNL     1       0.290   0.244   0.039  0.00  0.00    +0.037 A 
ATOM      5  C   UNL     1       1.015   0.373  -1.158  0.00  0.00    +0.015 A 
ATOM      6  C   UNL     1       2.136  -0.427  -1.397  0.00  0.00    +0.029 A 
ENDROOT
BRANCH   4   7
ATOM      7  C   UNL     1      -0.905   1.086   0.272  0.00  0.00    +0.244 C 
ATOM      8  O   UNL     1      -0.966   2.229  -0.261  0.00  0.00    -0.270 OA
ATOM      9  N   UNL     1      -2.012   0.599   1.048  0.00  0.00    -0.310 N 
ATOM     10  H   UNL     1      -1.992  -0.382   1.404  0.00  0.00    +0.149 HD
BRANCH   9  11
ATOM     11  C   UNL     1      -3.277   1.330   1.165  0.00  0.00    +0.128 C 
BRANCH  11  12
ATOM     12  C   UNL     1      -4.348   0.779   0.191  0.00  0.00    +0.104 C 
BRANCH  12  13
ATOM     13  C   UNL     1      -3.928   1.084  -1.241  0.00  0.00    -0.029 A 
ATOM     14  C   UNL     1      -3.042   0.239  -1.939  0.00  0.00    +0.005 A 
ATOM     15  C   UNL     1      -2.619   0.567  -3.231  0.00  0.00    +0.000 A 
ATOM     16  C   UNL     1      -3.070   1.741  -3.838  0.00  0.00    +0.000 A 
ATOM     17  C   UNL     1      -3.944   2.590  -3.154  0.00  0.00    +0.000 A 
ATOM     18  C   UNL     1      -4.367   2.268  -1.859  0.00  0.00    +0.005 A 
ENDBRANCH  12  13
BRANCH  12  19
ATOM     19  N   UNL     1      -4.588  -0.677   0.390  0.00  0.00    -0.294 NA
ATOM     20  C   UNL     1      -5.061  -0.995   1.744  0.00  0.00    +0.085 C 
ATOM     21  C   UNL     1      -5.823  -2.304   1.645  0.00  0.00    +0.017 C 
ATOM     22  C   UNL     1      -6.284  -2.386   0.201  0.00  0.00    +0.017 C 
ATOM     23  C   UNL     1      -5.640  -1.198  -0.500  0.00  0.00    +0.085 C 
ENDBRANCH  12  19
ENDBRANCH  11  12
ENDBRANCH   9  11
ENDBRANCH   4   7
BRANCH   1  24
ATOM     24  S   UNL     1       3.971  -2.367  -0.717  0.00  0.00    +0.072 S 
ATOM     25  O   UNL     1       3.543  -3.808  -0.729  0.00  0.00    -0.150 OA
ATOM     26  O   UNL     1       4.611  -2.048  -2.041  0.00  0.00    -0.150 OA
BRANCH  24  27
ATOM     27  N   UNL     1       5.128  -2.126   0.555  0.00  0.00    -0.216 N 
ATOM     28  H   UNL     1       5.295  -2.932   1.199  0.00  0.00    +0.174 HD
BRANCH  27  33
ATOM     29  C   UNL     1       8.287   2.634   1.312  0.00  0.00    +0.044 C 
ATOM     30  C   UNL     1       7.427   1.416   1.143  0.00  0.00    -0.050 A 
ATOM     31  C   UNL     1       7.681   0.261   1.895  0.00  0.00    +0.005 A 
ATOM     32  C   UNL     1       6.912  -0.892   1.701  0.00  0.00    +0.025 A 
ATOM     33  C   UNL     1       5.891  -0.918   0.737  0.00  0.00    +0.048 A 
ATOM     34  C   UNL     1       5.645   0.242  -0.023  0.00  0.00    +0.025 A 
ATOM     35  C   UNL     1       6.412   1.395   0.175  0.00  0.00    +0.005 A 
ENDBRANCH  27  33
ENDBRANCH  24  27
ENDBRANCH   1  24
TORSDOF 8
