REMARK  Name = 
REMARK  5 active torsions:
REMARK  status: ('A' for Active; 'I' for Inactive)
REMARK    1  A    between atoms: C_2  and  C_21
REMARK    2  A    between atoms: N_3  and  C_4
REMARK    3  A    between atoms: C_8  and  S_10
REMARK    4  A    between atoms: S_10  and  N_13
REMARK    5  A    between atoms: N_13  and  C_14
REMARK                            x       y       z     vdW  Elec       q    Type
REMARK                         _______ _______ _______ _____ _____    ______ ____
ROOT
ATOM      1  C   UNL     1       0.784   0.988  -1.384  0.00  0.00    +0.036 A 
ATOM      2  C   UNL     1       0.666   2.091  -2.243  0.00  0.00    +0.023 A 
ATOM      3  C   UNL     1      -0.362   2.145  -3.188  0.00  0.00    +0.004 A 
ATOM      4  C   UNL     1      -1.294   1.107  -3.270  0.00  0.00    +0.029 A 
ATOM      5  C   UNL     1      -1.207   0.014  -2.400  0.00  0.00    +0.110 A 
ATOM      6  C   UNL     1      -0.169  -0.044  -1.459  0.00  0.00    +0.052 A 
ENDROOT
BRANCH   1   9
ATOM      7  O   UNL     1       2.327  -1.308  -0.601  0.00  0.00    -0.270 OA
ATOM      8  C   UNL     1       2.522  -0.225   0.015  0.00  0.00    +0.248 C 
ATOM      9  N   UNL     1       1.833   0.970  -0.400  0.00  0.00    -0.281 N 
ATOM     10  H   UNL     1       2.121   1.891  -0.004  0.00  0.00    +0.155 HD
BRANCH   8  11
ATOM     11  C   UNL     1       3.471  -0.211   1.155  0.00  0.00    +0.040 A 
ATOM     12  C   UNL     1       4.204   0.941   1.492  0.00  0.00    +0.033 A 
ATOM     13  C   UNL     1       5.090   0.906   2.572  0.00  0.00    +0.111 A 
ATOM     14  N   UNL     1       5.248  -0.236   3.290  0.00  0.00    -0.263 NA
ATOM     15  C   UNL     1       4.562  -1.368   2.985  0.00  0.00    +0.111 A 
ATOM     16  C   UNL     1       3.668  -1.379   1.912  0.00  0.00    +0.033 A 
ENDBRANCH   8  11
ENDBRANCH   1   9
BRANCH   5  17
ATOM     17  S   UNL     1      -2.404  -1.276  -2.471  0.00  0.00    +0.072 S 
ATOM     18  O   UNL     1      -1.877  -2.373  -3.354  0.00  0.00    -0.150 OA
ATOM     19  O   UNL     1      -3.699  -0.767  -3.041  0.00  0.00    -0.150 OA
BRANCH  17  20
ATOM     20  N   UNL     1      -2.696  -1.913  -0.882  0.00  0.00    -0.213 N 
ATOM     21  H   UNL     1      -2.550  -2.939  -0.756  0.00  0.00    +0.174 HD
BRANCH  20  22
ATOM     22  C   UNL     1      -2.998  -1.096   0.265  0.00  0.00    +0.083 A 
ATOM     23  C   UNL     1      -3.388   0.251   0.130  0.00  0.00    +0.027 A 
ATOM     24  C   UNL     1      -3.666   1.024   1.261  0.00  0.00    +0.002 A 
ATOM     25  C   UNL     1      -3.564   0.465   2.535  0.00  0.00    +0.003 A 
ATOM     26  C   UNL     1      -3.187  -0.872   2.682  0.00  0.00    +0.040 A 
ATOM     27  C   UNL     1      -2.907  -1.651   1.555  0.00  0.00    +0.146 A 
ATOM     28  F   UNL     1      -2.535  -2.945   1.724  0.00  0.00    -0.204 F 
ENDBRANCH  20  22
ENDBRANCH  17  20
ENDBRANCH   5  17
TORSDOF 5
