REMARK  Name = 
REMARK  9 active torsions:
REMARK  status: ('A' for Active; 'I' for Inactive)
REMARK    1  A    between atoms: C_1  and  C_2
REMARK    2  A    between atoms: C_2  and  C_3
REMARK    3  A    between atoms: N_5  and  S_13
REMARK    4  A    between atoms: N_8  and  C_9
REMARK    5  A    between atoms: C_9  and  C_10
REMARK    6  A    between atoms: C_10  and  C_11
REMARK    7  A    between atoms: C_10  and  O_12
REMARK    8  A    between atoms: S_13  and  C_16
REMARK    9  A    between atoms: C_19  and  C_21
REMARK                            x       y       z     vdW  Elec       q    Type
REMARK                         _______ _______ _______ _____ _____    ______ ____
ROOT
ATOM      1  S   UNL     1       0.813  -2.300   0.620  0.00  0.00    +0.062 S 
ATOM      2  O   UNL     1       0.921  -3.652   1.266  0.00  0.00    -0.153 OA
ATOM      3  O   UNL     1       1.736  -2.253  -0.566  0.00  0.00    -0.153 OA
ENDROOT
BRANCH   1   6
ATOM      4  C   UNL     1       2.278   0.810   0.412  0.00  0.00    +0.072 C 
ATOM      5  C   UNL     1       1.054   0.301   1.226  0.00  0.00    +0.128 C 
ATOM      6  N   UNL     1       1.244  -1.058   1.774  0.00  0.00    -0.174 NA
ATOM      7  C   UNL     1       2.575  -1.304   2.371  0.00  0.00    +0.125 C 
ATOM      8  C   UNL     1       3.439  -0.039   2.433  0.00  0.00    +0.102 C 
ATOM      9  N   UNL     1       3.585   0.565   1.093  0.00  0.00    -0.294 NA
BRANCH   4  11
ATOM     10  C   UNL     1       1.028   2.666  -0.839  0.00  0.00    +0.005 C 
ATOM     11  C   UNL     1       2.150   2.326   0.144  0.00  0.00    +0.017 C 
ENDBRANCH   4  11
BRANCH   9  12
ATOM     12  C   UNL     1       4.553  -0.188   0.254  0.00  0.00    +0.115 C 
BRANCH  12  13
ATOM     13  C   UNL     1       5.227   0.727  -0.786  0.00  0.00    +0.125 C 
ATOM     14  C   UNL     1       6.487   0.065  -1.354  0.00  0.00    +0.039 C 
BRANCH  13  15
ATOM     15  O   UNL     1       4.335   0.993  -1.838  0.00  0.00    -0.391 OA
ATOM     16  H   UNL     1       4.662   1.814  -2.292  0.00  0.00    +0.210 HD
ENDBRANCH  13  15
ENDBRANCH  12  13
ENDBRANCH   9  12
ENDBRANCH   1   6
BRANCH   1  17
ATOM     17  C   UNL     1      -0.840  -2.070   0.080  0.00  0.00    +0.123 A 
ATOM     18  C   UNL     1      -1.259  -1.867  -1.218  0.00  0.00    +0.112 A 
ATOM     19  N   UNL     1      -2.589  -1.662  -1.234  0.00  0.00    -0.355 N 
ATOM     20  C   UNL     1      -3.010  -1.718   0.046  0.00  0.00    +0.104 A 
ATOM     21  C   UNL     1      -1.951  -1.986   0.893  0.00  0.00    +0.060 A 
ATOM     22  H   UNL     1      -3.176  -1.528  -2.086  0.00  0.00    +0.166 HD
BRANCH  20  23
ATOM     23  C   UNL     1      -4.410  -1.559   0.473  0.00  0.00    +0.263 C 
ATOM     24  O   UNL     1      -4.843  -2.284   1.408  0.00  0.00    -0.268 OA
ATOM     25  N   UNL     1      -5.278  -0.582  -0.131  0.00  0.00    -0.296 N 
ATOM     26  C   UNL     1      -6.716  -0.576   0.089  0.00  0.00    +0.108 C 
ATOM     27  C   UNL     1      -7.191   0.817  -0.303  0.00  0.00    +0.020 C 
ATOM     28  C   UNL     1      -6.057   1.433  -1.116  0.00  0.00    +0.020 C 
ATOM     29  C   UNL     1      -4.806   0.648  -0.746  0.00  0.00    +0.108 C 
ENDBRANCH  20  23
ENDBRANCH   1  17
TORSDOF 7
