REMARK  Name = 
REMARK  5 active torsions:
REMARK  status: ('A' for Active; 'I' for Inactive)
REMARK    1  A    between atoms: C_1  and  C_2
REMARK    2  A    between atoms: C_11  and  C_12
REMARK    3  A    between atoms: N_14  and  C_15
REMARK    4  A    between atoms: C_20  and  C_21
REMARK    5  A    between atoms: C_21  and  O_23
REMARK                            x       y       z     vdW  Elec       q    Type
REMARK                         _______ _______ _______ _____ _____    ______ ____
ROOT
ATOM      1  C   UNL     1      -0.471   0.557  -1.229  0.00  0.00    +0.262 C 
ATOM      2  O   UNL     1      -0.995   0.710  -2.365  0.00  0.00    -0.271 OA
ATOM      3  N   UNL     1      -1.293   0.251  -0.089  0.00  0.00    -0.282 N 
ATOM      4  H   UNL     1      -0.829  -0.083   0.785  0.00  0.00    +0.155 HD
ENDROOT
BRANCH   1  15
ATOM      5  C   UNL     1       1.180  -1.923  -0.837  0.00  0.00    +0.056 C 
ATOM      6  C   UNL     1       1.736  -0.678  -1.539  0.00  0.00    +0.220 C 
ATOM      7  O   UNL     1       3.138  -0.575  -1.262  0.00  0.00    -0.481 OA
ATOM      8  C   UNL     1       3.608   0.044  -0.097  0.00  0.00    +0.163 A 
ATOM      9  C   UNL     1       4.941  -0.100   0.301  0.00  0.00    +0.049 A 
ATOM     10  C   UNL     1       5.380   0.497   1.488  0.00  0.00    +0.004 A 
ATOM     11  C   UNL     1       4.489   1.238   2.273  0.00  0.00    +0.004 A 
ATOM     12  C   UNL     1       3.159   1.395   1.868  0.00  0.00    +0.049 A 
ATOM     13  C   UNL     1       2.723   0.811   0.675  0.00  0.00    +0.163 A 
ATOM     14  O   UNL     1       1.407   0.981   0.234  0.00  0.00    -0.472 OA
ATOM     15  C   UNL     1       1.027   0.630  -1.101  0.00  0.00    +0.299 C 
ENDBRANCH   1  15
BRANCH   3  16
ATOM     16  C   UNL     1      -2.724   0.400  -0.088  0.00  0.00    +0.048 A 
ATOM     17  C   UNL     1      -3.300   1.549  -0.661  0.00  0.00    +0.024 A 
ATOM     18  C   UNL     1      -4.676   1.766  -0.591  0.00  0.00    +0.002 A 
ATOM     19  C   UNL     1      -5.495   0.850   0.064  0.00  0.00    +0.001 A 
ATOM     20  C   UNL     1      -4.942  -0.292   0.646  0.00  0.00    +0.017 A 
ATOM     21  C   UNL     1      -3.558  -0.538   0.575  0.00  0.00    +0.080 A 
BRANCH  21  22
ATOM     22  C   UNL     1      -3.026  -1.792   1.163  0.00  0.00    +0.339 C 
ATOM     23  O   UNL     1      -3.658  -2.374   2.086  0.00  0.00    -0.245 OA
BRANCH  22  24
ATOM     24  O   UNL     1      -1.851  -2.362   0.682  0.00  0.00    -0.477 OA
ATOM     25  H   UNL     1      -1.490  -3.223   1.075  0.00  0.00    +0.295 HD
ENDBRANCH  22  24
ENDBRANCH  21  22
ENDBRANCH   3  16
TORSDOF 4
