REMARK  Name = 
REMARK  6 active torsions:
REMARK  status: ('A' for Active; 'I' for Inactive)
REMARK    1  A    between atoms: C_2  and  C_20
REMARK    2  A    between atoms: N_3  and  C_4
REMARK    3  A    between atoms: C_4  and  C_5
REMARK    4  A    between atoms: C_10  and  S_11
REMARK    5  A    between atoms: S_11  and  N_14
REMARK    6  A    between atoms: C_22  and  O_23
REMARK                            x       y       z     vdW  Elec       q    Type
REMARK                         _______ _______ _______ _____ _____    ______ ____
ROOT
ATOM      1  O   UNL     1       2.812   2.637   0.447  0.00  0.00    -0.270 OA
ATOM      2  C   UNL     1       2.571   1.406   0.304  0.00  0.00    +0.245 C 
ATOM      3  N   UNL     1       1.224   0.951   0.099  0.00  0.00    -0.307 N 
ATOM      4  H   UNL     1       1.028  -0.076   0.114  0.00  0.00    +0.149 HD
ENDROOT
BRANCH   2   5
ATOM      5  C   UNL     1       3.678   0.432   0.430  0.00  0.00    +0.051 A 
ATOM      6  C   UNL     1       4.531   0.541   1.538  0.00  0.00    +0.080 A 
ATOM      7  C   UNL     1       5.543  -0.402   1.741  0.00  0.00    +0.214 A 
ATOM      8  N   UNL     1       5.707  -1.421   0.859  0.00  0.00    -0.213 NA
ATOM      9  C   UNL     1       4.921  -1.555  -0.241  0.00  0.00    +0.076 A 
ATOM     10  C   UNL     1       5.147  -2.618  -1.125  0.00  0.00    +0.028 A 
ATOM     11  C   UNL     1       4.369  -2.751  -2.276  0.00  0.00    +0.002 A 
ATOM     12  C   UNL     1       3.373  -1.815  -2.561  0.00  0.00    +0.001 A 
ATOM     13  C   UNL     1       3.137  -0.750  -1.688  0.00  0.00    +0.011 A 
ATOM     14  C   UNL     1       3.888  -0.618  -0.500  0.00  0.00    +0.013 A 
BRANCH   7  15
ATOM     15  O   UNL     1       6.386  -0.313   2.846  0.00  0.00    -0.492 OA
ATOM     16  H   UNL     1       6.291   0.433   3.525  0.00  0.00    +0.294 HD
ENDBRANCH   7  15
ENDBRANCH   2   5
BRANCH   3  17
ATOM     17  C   UNL     1       0.092   1.859  -0.097  0.00  0.00    +0.141 C 
BRANCH  17  18
ATOM     18  C   UNL     1      -0.914   1.724   1.030  0.00  0.00    -0.004 A 
ATOM     19  C   UNL     1      -0.423   1.564   2.344  0.00  0.00    +0.007 A 
ATOM     20  C   UNL     1      -1.292   1.441   3.426  0.00  0.00    +0.000 A 
ATOM     21  C   UNL     1      -2.667   1.498   3.226  0.00  0.00    +0.002 A 
ATOM     22  C   UNL     1      -3.178   1.702   1.945  0.00  0.00    +0.029 A 
ATOM     23  C   UNL     1      -2.325   1.832   0.836  0.00  0.00    +0.110 A 
BRANCH  23  24
ATOM     24  S   UNL     1      -3.096   2.152  -0.738  0.00  0.00    +0.061 S 
ATOM     25  O   UNL     1      -4.323   2.991  -0.503  0.00  0.00    -0.153 OA
ATOM     26  O   UNL     1      -2.193   2.950  -1.637  0.00  0.00    -0.153 OA
BRANCH  24  27
ATOM     27  N   UNL     1      -3.570   0.669  -1.542  0.00  0.00    -0.177 NA
ATOM     28  C   UNL     1      -2.390  -0.176  -1.825  0.00  0.00    +0.109 C 
ATOM     29  C   UNL     1      -2.813  -1.590  -2.236  0.00  0.00    +0.017 C 
ATOM     30  C   UNL     1      -3.572  -2.294  -1.095  0.00  0.00    +0.003 C 
ATOM     31  C   UNL     1      -4.211  -1.304  -0.106  0.00  0.00    +0.017 C 
ATOM     32  C   UNL     1      -4.670  -0.025  -0.823  0.00  0.00    +0.109 C 
ENDBRANCH  24  27
ENDBRANCH  23  24
ENDBRANCH  17  18
ENDBRANCH   3  17
TORSDOF 6
