REMARK  Name = 
REMARK  9 active torsions:
REMARK  status: ('A' for Active; 'I' for Inactive)
REMARK    1  A    between atoms: C_1  and  C_2
REMARK    2  A    between atoms: C_2  and  C_3
REMARK    3  A    between atoms: C_3  and  O_4
REMARK    4  A    between atoms: O_4  and  C_5
REMARK    5  A    between atoms: C_10  and  O_11
REMARK    6  A    between atoms: O_11  and  C_12
REMARK    7  A    between atoms: C_12  and  C_13
REMARK    8  A    between atoms: N_15  and  C_16
REMARK    9  A    between atoms: C_19  and  C_22
REMARK                            x       y       z     vdW  Elec       q    Type
REMARK                         _______ _______ _______ _____ _____    ______ ____
ROOT
ATOM      1  C   UNL     1       1.249  -0.255   1.441  0.00  0.00    +0.255 C 
ATOM      2  O   UNL     1       1.399  -1.473   1.152  0.00  0.00    -0.272 OA
ATOM      3  N   UNL     1       2.241   0.713   1.062  0.00  0.00    -0.283 N 
ATOM      4  H   UNL     1       2.256   1.624   1.574  0.00  0.00    +0.155 HD
ENDROOT
BRANCH   3   5
ATOM      5  C   UNL     1       3.280   0.465   0.099  0.00  0.00    +0.034 A 
ATOM      6  C   UNL     1       4.520   1.101   0.246  0.00  0.00    +0.024 A 
ATOM      7  C   UNL     1       5.540   0.895  -0.687  0.00  0.00    +0.015 A 
ATOM      8  C   UNL     1       5.332   0.061  -1.800  0.00  0.00    +0.037 A 
ATOM      9  C   UNL     1       4.082  -0.567  -1.952  0.00  0.00    +0.015 A 
ATOM     10  C   UNL     1       3.063  -0.360  -1.018  0.00  0.00    +0.024 A 
BRANCH   8  11
ATOM     11  C   UNL     1       6.404  -0.175  -2.798  0.00  0.00    +0.242 C 
ATOM     12  N   UNL     1       7.478   0.753  -2.975  0.00  0.00    -0.325 N 
ATOM     13  O   UNL     1       6.368  -1.208  -3.520  0.00  0.00    -0.270 OA
ATOM     14  H   UNL     1       7.474   1.693  -2.522  0.00  0.00    +0.145 HD
ATOM     15  H   UNL     1       8.250   0.533  -3.643  0.00  0.00    +0.145 HD
ENDBRANCH   8  11
ENDBRANCH   3   5
BRANCH   1  16
ATOM     16  C   UNL     1       0.056   0.162   2.242  0.00  0.00    +0.325 C 
BRANCH  16  17
ATOM     17  O   UNL     1      -1.129  -0.259   1.574  0.00  0.00    -0.479 OA
BRANCH  17  23
ATOM     18  C   UNL     1      -3.509  -0.498   1.270  0.00  0.00    +0.162 A 
ATOM     19  C   UNL     1      -4.829  -0.289   1.719  0.00  0.00    +0.049 A 
ATOM     20  C   UNL     1      -5.066   0.377   2.924  0.00  0.00    +0.004 A 
ATOM     21  C   UNL     1      -3.996   0.837   3.692  0.00  0.00    +0.004 A 
ATOM     22  C   UNL     1      -2.685   0.633   3.260  0.00  0.00    +0.049 A 
ATOM     23  C   UNL     1      -2.433  -0.037   2.045  0.00  0.00    +0.163 A 
BRANCH  18  24
ATOM     24  O   UNL     1      -3.219  -1.165   0.066  0.00  0.00    -0.488 OA
BRANCH  24  25
ATOM     25  C   UNL     1      -4.175  -1.562  -0.919  0.00  0.00    +0.229 C 
BRANCH  25  27
ATOM     26  C   UNL     1      -3.568   0.361  -2.454  0.00  0.00    +0.007 C 
ATOM     27  C   UNL     1      -4.693  -0.355  -1.710  0.00  0.00    +0.038 C 
ENDBRANCH  25  27
ENDBRANCH  24  25
ENDBRANCH  18  24
ENDBRANCH  17  23
ENDBRANCH  16  17
ENDBRANCH   1  16
TORSDOF 8
