REMARK  Name = 
REMARK  7 active torsions:
REMARK  status: ('A' for Active; 'I' for Inactive)
REMARK    1  A    between atoms: C_2  and  O_3
REMARK    2  A    between atoms: C_2  and  C_4
REMARK    3  A    between atoms: C_9  and  C_10
REMARK    4  A    between atoms: N_12  and  C_13
REMARK    5  A    between atoms: C_17  and  O_19
REMARK    6  A    between atoms: O_19  and  C_20
REMARK    7  A    between atoms: C_20  and  C_21
REMARK                            x       y       z     vdW  Elec       q    Type
REMARK                         _______ _______ _______ _____ _____    ______ ____
ROOT
ATOM      1  C   UNL     1      -2.543  -0.562   0.831  0.00  0.00    +0.221 C 
ATOM      2  O   UNL     1      -2.671  -1.811   0.708  0.00  0.00    -0.275 OA
ATOM      3  N   UNL     1      -1.280   0.065   0.559  0.00  0.00    -0.285 N 
ATOM      4  H   UNL     1      -1.100   1.003   0.985  0.00  0.00    +0.155 HD
ENDROOT
BRANCH   1  10
ATOM      5  C   UNL     1      -4.554   0.787   0.049  0.00  0.00    +0.113 C 
ATOM      6  C   UNL     1      -5.226  -0.389  -0.686  0.00  0.00    +0.042 C 
ATOM      7  C   UNL     1      -5.925  -1.327   0.265  0.00  0.00    -0.030 C 
ATOM      8  C   UNL     1      -5.600  -1.419   1.566  0.00  0.00    -0.030 C 
ATOM      9  C   UNL     1      -4.648  -0.461   2.243  0.00  0.00    +0.040 C 
ATOM     10  C   UNL     1      -3.726   0.286   1.255  0.00  0.00    +0.093 C 
BRANCH   5  12
ATOM     11  O   UNL     1      -3.688   2.883  -0.728  0.00  0.00    -0.251 OA
ATOM     12  C   UNL     1      -3.728   1.633  -0.887  0.00  0.00    +0.309 C 
BRANCH  12  13
ATOM     13  O   UNL     1      -2.970   1.041  -1.894  0.00  0.00    -0.480 OA
ATOM     14  H   UNL     1      -2.389   1.602  -2.506  0.00  0.00    +0.295 HD
ENDBRANCH  12  13
ENDBRANCH   5  12
ENDBRANCH   1  10
BRANCH   3  15
ATOM     15  C   UNL     1      -0.234  -0.531  -0.229  0.00  0.00    +0.037 A 
ATOM     16  C   UNL     1      -0.521  -1.429  -1.273  0.00  0.00    +0.023 A 
ATOM     17  C   UNL     1       0.514  -1.972  -2.038  0.00  0.00    +0.005 A 
ATOM     18  C   UNL     1       1.838  -1.612  -1.785  0.00  0.00    +0.046 A 
ATOM     19  C   UNL     1       2.143  -0.696  -0.772  0.00  0.00    +0.123 A 
ATOM     20  C   UNL     1       1.098  -0.154   0.003  0.00  0.00    +0.069 A 
BRANCH  19  21
ATOM     21  O   UNL     1       3.487  -0.348  -0.570  0.00  0.00    -0.487 OA
BRANCH  21  22
ATOM     22  C   UNL     1       3.937   0.620   0.372  0.00  0.00    +0.266 C 
BRANCH  22  23
ATOM     23  C   UNL     1       5.427   0.761   0.261  0.00  0.00    +0.008 A 
ATOM     24  C   UNL     1       5.990   1.547  -0.755  0.00  0.00    +0.010 A 
ATOM     25  C   UNL     1       7.377   1.648  -0.871  0.00  0.00    +0.020 A 
ATOM     26  C   UNL     1       8.191   0.952   0.025  0.00  0.00    +0.111 A 
ATOM     27  N   UNL     1       7.631   0.183   0.998  0.00  0.00    -0.263 NA
ATOM     28  C   UNL     1       6.282   0.069   1.131  0.00  0.00    +0.117 A 
ENDBRANCH  22  23
ENDBRANCH  21  22
ENDBRANCH  19  21
ENDBRANCH   3  15
TORSDOF 7
