REMARK  Name = 
REMARK  8 active torsions:
REMARK  status: ('A' for Active; 'I' for Inactive)
REMARK    1  A    between atoms: C_1  and  S_2
REMARK    2  A    between atoms: S_2  and  C_5
REMARK    3  A    between atoms: C_5  and  C_6
REMARK    4  A    between atoms: C_6  and  C_7
REMARK    5  A    between atoms: C_6  and  C_17
REMARK    6  A    between atoms: N_9  and  C_10
REMARK    7  A    between atoms: C_10  and  C_11
REMARK    8  A    between atoms: C_11  and  C_12
REMARK                            x       y       z     vdW  Elec       q    Type
REMARK                         _______ _______ _______ _____ _____    ______ ____
ROOT
ATOM      1  C   UNL     1      -1.255   0.787   0.170  0.00  0.00    +0.126 C 
ENDROOT
BRANCH   1   2
ATOM      2  C   UNL     1      -2.024  -0.515   0.285  0.00  0.00    -0.034 A 
ATOM      3  C   UNL     1      -2.314  -1.290  -0.856  0.00  0.00    +0.004 A 
ATOM      4  C   UNL     1      -3.028  -2.486  -0.735  0.00  0.00    +0.000 A 
ATOM      5  C   UNL     1      -3.458  -2.922   0.520  0.00  0.00    +0.000 A 
ATOM      6  C   UNL     1      -3.175  -2.163   1.658  0.00  0.00    +0.000 A 
ATOM      7  C   UNL     1      -2.462  -0.966   1.544  0.00  0.00    +0.004 A 
ENDBRANCH   1   2
BRANCH   1   8
ATOM      8  C   UNL     1       0.122   0.515  -0.384  0.00  0.00    +0.222 C 
ATOM      9  O   UNL     1       0.328   0.568  -1.629  0.00  0.00    -0.275 OA
ATOM     10  N   UNL     1       1.183   0.131   0.501  0.00  0.00    -0.314 N 
ATOM     11  H   UNL     1       0.985   0.075   1.526  0.00  0.00    +0.149 HD
BRANCH  10  12
ATOM     12  C   UNL     1       2.514  -0.201  -0.004  0.00  0.00    +0.109 C 
BRANCH  12  13
ATOM     13  C   UNL     1       3.453  -0.586   1.142  0.00  0.00    +0.054 C 
BRANCH  13  14
ATOM     14  C   UNL     1       4.811  -0.945   0.615  0.00  0.00    -0.039 A 
ATOM     15  C   UNL     1       5.797   0.010   0.319  0.00  0.00    +0.011 A 
ATOM     16  C   UNL     1       6.959  -0.538  -0.206  0.00  0.00    +0.045 A 
ATOM     17  S   UNL     1       6.749  -2.202  -0.312  0.00  0.00    -0.105 S 
ATOM     18  C   UNL     1       5.188  -2.248   0.307  0.00  0.00    +0.048 A 
ENDBRANCH  13  14
ENDBRANCH  12  13
ENDBRANCH  10  12
ENDBRANCH   1   8
BRANCH   1  19
ATOM     19  C   UNL     1      -2.011   1.838  -0.670  0.00  0.00    +0.183 C 
BRANCH  19  21
ATOM     20  C   UNL     1      -4.211   3.736  -0.787  0.00  0.00    +0.194 C 
ATOM     21  S   UNL     1      -3.549   2.342   0.097  0.00  0.00    -0.033 S 
ATOM     22  O   UNL     1      -3.307   2.734   1.528  0.00  0.00    -0.175 OA
ATOM     23  O   UNL     1      -4.542   1.215   0.049  0.00  0.00    -0.175 OA
ENDBRANCH  19  21
ENDBRANCH   1  19
TORSDOF 7
