REMARK  Name = 
REMARK  10 active torsions:
REMARK  status: ('A' for Active; 'I' for Inactive)
REMARK    1  A    between atoms: C_1  and  C_2
REMARK    2  A    between atoms: C_2  and  C_4
REMARK    3  A    between atoms: C_7  and  S_10
REMARK    4  A    between atoms: S_10  and  N_13
REMARK    5  A    between atoms: N_13  and  C_14
REMARK    6  A    between atoms: C_14  and  C_15
REMARK    7  A    between atoms: C_14  and  C_19
REMARK    8  A    between atoms: C_15  and  C_16
REMARK    9  A    between atoms: C_16  and  O_18
REMARK   10  A    between atoms: C_22  and  C_23
REMARK                            x       y       z     vdW  Elec       q    Type
REMARK                         _______ _______ _______ _____ _____    ______ ____
ROOT
ATOM      1  N   UNL     1      -0.471   2.001  -0.135  0.00  0.00    -0.182 NA
ATOM      2  H   UNL     1      -0.125   2.381   0.776  0.00  0.00    +0.149 HD
ENDROOT
BRANCH   1   3
ATOM      3  S   UNL     1       0.787   2.218  -1.319  0.00  0.00    +0.059 S 
ATOM      4  O   UNL     1       0.270   1.835  -2.678  0.00  0.00    -0.153 OA
ATOM      5  O   UNL     1       1.185   3.667  -1.355  0.00  0.00    -0.153 OA
BRANCH   3   9
ATOM      6  C   UNL     1       4.413  -0.350  -0.199  0.00  0.00    +0.017 A 
ATOM      7  C   UNL     1       3.483  -0.802  -1.157  0.00  0.00    +0.013 A 
ATOM      8  C   UNL     1       2.387  -0.011  -1.511  0.00  0.00    +0.029 A 
ATOM      9  C   UNL     1       2.199   1.243  -0.917  0.00  0.00    +0.105 A 
ATOM     10  C   UNL     1       3.115   1.699   0.036  0.00  0.00    +0.029 A 
ATOM     11  C   UNL     1       4.213   0.912   0.392  0.00  0.00    +0.013 A 
BRANCH   6  13
ATOM     12  C   UNL     1       5.828  -2.537  -0.396  0.00  0.00    +0.091 C 
ATOM     13  C   UNL     1       5.583  -1.180   0.194  0.00  0.00    +0.160 C 
ATOM     14  O   UNL     1       6.402  -0.743   1.048  0.00  0.00    -0.292 OA
ENDBRANCH   6  13
ENDBRANCH   3   9
ENDBRANCH   1   3
BRANCH   1  15
ATOM     15  C   UNL     1      -0.868   0.585  -0.005  0.00  0.00    +0.117 C 
BRANCH  15  16
ATOM     16  C   UNL     1      -2.376   0.506   0.120  0.00  0.00    -0.028 A 
ATOM     17  C   UNL     1      -3.110  -0.380  -0.689  0.00  0.00    +0.005 A 
ATOM     18  C   UNL     1      -4.498  -0.475  -0.558  0.00  0.00    +0.003 A 
ATOM     19  C   UNL     1      -5.177   0.319   0.377  0.00  0.00    -0.050 A 
ATOM     20  C   UNL     1      -6.662   0.186   0.545  0.00  0.00    +0.044 C 
ATOM     21  C   UNL     1      -4.448   1.185   1.204  0.00  0.00    +0.003 A 
ATOM     22  C   UNL     1      -3.059   1.281   1.075  0.00  0.00    +0.005 A 
ENDBRANCH  15  16
BRANCH  15  23
ATOM     23  C   UNL     1      -0.187  -0.088   1.210  0.00  0.00    +0.145 C 
BRANCH  23  24
ATOM     24  C   UNL     1      -0.416  -1.569   1.215  0.00  0.00    +0.307 C 
ATOM     25  O   UNL     1       0.338  -2.326   0.547  0.00  0.00    -0.251 OA
BRANCH  24  26
ATOM     26  O   UNL     1      -1.489  -2.102   1.922  0.00  0.00    -0.481 OA
ATOM     27  H   UNL     1      -1.670  -3.099   1.918  0.00  0.00    +0.295 HD
ENDBRANCH  24  26
ENDBRANCH  23  24
ENDBRANCH  15  23
ENDBRANCH   1  15
TORSDOF 8
