REMARK  Name = 
REMARK  10 active torsions:
REMARK  status: ('A' for Active; 'I' for Inactive)
REMARK    1  A    between atoms: C_1  and  O_2
REMARK    2  A    between atoms: O_2  and  C_3
REMARK    3  A    between atoms: C_6  and  S_22
REMARK    4  A    between atoms: C_8  and  C_9
REMARK    5  A    between atoms: N_11  and  C_12
REMARK    6  A    between atoms: C_12  and  C_13
REMARK    7  A    between atoms: C_13  and  C_14
REMARK    8  A    between atoms: C_13  and  C_15
REMARK    9  A    between atoms: C_13  and  C_16
REMARK   10  A    between atoms: S_22  and  C_23
REMARK                            x       y       z     vdW  Elec       q    Type
REMARK                         _______ _______ _______ _____ _____    ______ ____
ROOT
ATOM      1  C   UNL     1       1.327  -0.214   0.742  0.00  0.00    +0.248 C 
ATOM      2  O   UNL     1       1.061   0.556   1.705  0.00  0.00    -0.270 OA
ATOM      3  N   UNL     1       0.286  -1.005   0.143  0.00  0.00    -0.311 N 
ATOM      4  H   UNL     1       0.546  -1.740  -0.552  0.00  0.00    +0.149 HD
ENDROOT
BRANCH   1  10
ATOM      5  C   UNL     1       3.034  -0.363  -1.107  0.00  0.00    +0.132 A 
ATOM      6  C   UNL     1       4.380  -0.483  -1.506  0.00  0.00    +0.048 A 
ATOM      7  C   UNL     1       5.399  -0.546  -0.554  0.00  0.00    +0.030 A 
ATOM      8  C   UNL     1       5.095  -0.491   0.809  0.00  0.00    +0.089 A 
ATOM      9  C   UNL     1       3.762  -0.367   1.216  0.00  0.00    +0.043 A 
ATOM     10  C   UNL     1       2.724  -0.323   0.270  0.00  0.00    +0.080 A 
BRANCH   8  11
ATOM     11  S   UNL     1       6.379  -0.558   2.013  0.00  0.00    -0.006 S 
ATOM     12  C   UNL     1       6.804   1.093   2.518  0.00  0.00    +0.200 C 
ATOM     13  O   UNL     1       7.592  -1.231   1.433  0.00  0.00    -0.170 OA
ATOM     14  O   UNL     1       5.913  -1.347   3.204  0.00  0.00    -0.170 OA
ENDBRANCH   8  11
BRANCH   5  16
ATOM     15  C   UNL     1       2.177  -0.268  -3.460  0.00  0.00    +0.277 C 
ATOM     16  O   UNL     1       1.996  -0.254  -2.048  0.00  0.00    -0.494 OA
ENDBRANCH   5  16
ENDBRANCH   1  10
BRANCH   3  17
ATOM     17  C   UNL     1      -1.130  -0.859   0.494  0.00  0.00    +0.111 C 
BRANCH  17  18
ATOM     18  C   UNL     1      -1.914  -0.029  -0.570  0.00  0.00    -0.017 C 
ATOM     19  C   UNL     1      -1.284   1.384  -0.681  0.00  0.00    +0.013 C 
ATOM     20  C   UNL     1      -1.781  -0.703  -1.960  0.00  0.00    +0.013 C 
BRANCH  18  21
ATOM     21  C   UNL     1      -3.446   0.103  -0.198  0.00  0.00    -0.004 C 
ATOM     22  C   UNL     1      -3.712   0.695   1.210  0.00  0.00    +0.004 C 
ATOM     23  C   UNL     1      -5.199   1.056   1.403  0.00  0.00    +0.000 C 
ATOM     24  C   UNL     1      -6.162   0.137   0.627  0.00  0.00    +0.000 C 
ATOM     25  C   UNL     1      -5.570  -1.261   0.431  0.00  0.00    +0.000 C 
ATOM     26  C   UNL     1      -4.258  -1.217  -0.379  0.00  0.00    +0.004 C 
ENDBRANCH  18  21
ENDBRANCH  17  18
ENDBRANCH   3  17
TORSDOF 6
