REMARK  Name = 
REMARK  7 active torsions:
REMARK  status: ('A' for Active; 'I' for Inactive)
REMARK    1  A    between atoms: C_1  and  O_2
REMARK    2  A    between atoms: O_2  and  C_3
REMARK    3  A    between atoms: C_6  and  C_9
REMARK    4  A    between atoms: C_9  and  N_10
REMARK    5  A    between atoms: C_9  and  C_21
REMARK    6  A    between atoms: C_11  and  C_13
REMARK    7  A    between atoms: C_16  and  C_17
REMARK                            x       y       z     vdW  Elec       q    Type
REMARK                         _______ _______ _______ _____ _____    ______ ____
ROOT
ATOM      1  C   UNL     1      -0.813   0.841   1.051  0.00  0.00    +0.134 C 
ENDROOT
BRANCH   1   5
ATOM      2  C   UNL     1      -3.743  -2.208   0.007  0.00  0.00    +0.120 A 
ATOM      3  C   UNL     1      -2.390  -2.546   0.112  0.00  0.00    +0.046 A 
ATOM      4  C   UNL     1      -1.437  -1.577   0.439  0.00  0.00    +0.009 A 
ATOM      5  C   UNL     1      -1.816  -0.234   0.638  0.00  0.00    -0.023 A 
ATOM      6  C   UNL     1      -3.186   0.089   0.576  0.00  0.00    +0.009 A 
ATOM      7  C   UNL     1      -4.137  -0.881   0.248  0.00  0.00    +0.046 A 
BRANCH   2   9
ATOM      8  C   UNL     1      -6.061  -3.015  -0.468  0.00  0.00    +0.277 C 
ATOM      9  O   UNL     1      -4.658  -3.217  -0.328  0.00  0.00    -0.495 OA
ENDBRANCH   2   9
ENDBRANCH   1   5
BRANCH   1  10
ATOM     10  C   UNL     1      -0.982   2.172   0.332  0.00  0.00    -0.023 A 
ATOM     11  C   UNL     1      -0.612   3.357   0.994  0.00  0.00    +0.006 A 
ATOM     12  C   UNL     1      -0.718   4.593   0.351  0.00  0.00    +0.000 A 
ATOM     13  C   UNL     1      -1.183   4.662  -0.964  0.00  0.00    +0.000 A 
ATOM     14  C   UNL     1      -1.538   3.493  -1.640  0.00  0.00    +0.000 A 
ATOM     15  C   UNL     1      -1.433   2.253  -1.002  0.00  0.00    +0.006 A 
ENDBRANCH   1  10
BRANCH   1  16
ATOM     16  N   UNL     1       0.586   0.397   0.959  0.00  0.00    -0.300 N 
ATOM     17  C   UNL     1       1.262   0.078  -0.272  0.00  0.00    +0.250 C 
ATOM     18  O   UNL     1       0.662   0.200  -1.373  0.00  0.00    -0.270 OA
ATOM     19  H   UNL     1       1.145   0.415   1.842  0.00  0.00    +0.150 HD
BRANCH  17  20
ATOM     20  C   UNL     1       2.670  -0.382  -0.268  0.00  0.00    +0.101 A 
ATOM     21  C   UNL     1       3.535   0.044  -1.285  0.00  0.00    +0.020 A 
ATOM     22  C   UNL     1       4.865  -0.371  -1.297  0.00  0.00    +0.022 A 
ATOM     23  C   UNL     1       5.334  -1.215  -0.285  0.00  0.00    +0.016 A 
ATOM     24  C   UNL     1       6.755  -1.697  -0.307  0.00  0.00    +0.063 C 
ATOM     25  N   UNL     1       4.476  -1.655   0.680  0.00  0.00    -0.326 N 
ATOM     26  C   UNL     1       3.169  -1.267   0.711  0.00  0.00    +0.261 A 
ATOM     27  O   UNL     1       2.410  -1.730   1.605  0.00  0.00    -0.267 OA
ATOM     28  H   UNL     1       4.823  -2.315   1.413  0.00  0.00    +0.169 HD
ENDBRANCH  17  20
ENDBRANCH   1  16
TORSDOF 5
