REMARK  Name = 
REMARK  6 active torsions:
REMARK  status: ('A' for Active; 'I' for Inactive)
REMARK    1  A    between atoms: C_1  and  N_2
REMARK    2  A    between atoms: N_2  and  C_3
REMARK    3  A    between atoms: N_2  and  S_10
REMARK    4  A    between atoms: C_3  and  C_4
REMARK    5  A    between atoms: S_10  and  C_13
REMARK    6  A    between atoms: C_16  and  C_19
REMARK                            x       y       z     vdW  Elec       q    Type
REMARK                         _______ _______ _______ _____ _____    ______ ____
ROOT
ATOM      1  S   UNL     1       0.261  -2.175  -0.196  0.00  0.00    +0.062 S 
ATOM      2  O   UNL     1       0.609  -3.078  -1.347  0.00  0.00    -0.153 OA
ATOM      3  O   UNL     1      -0.039  -3.015   1.015  0.00  0.00    -0.153 OA
ENDROOT
BRANCH   1   4
ATOM      4  C   UNL     1       1.637  -1.125   0.125  0.00  0.00    +0.123 A 
ATOM      5  C   UNL     1       2.515  -1.392   1.182  0.00  0.00    +0.032 A 
ATOM      6  C   UNL     1       3.596  -0.542   1.421  0.00  0.00    +0.034 A 
ATOM      7  C   UNL     1       3.793   0.574   0.594  0.00  0.00    +0.144 A 
ATOM      8  N   UNL     1       2.928   0.809  -0.432  0.00  0.00    -0.249 NA
ATOM      9  C   UNL     1       1.869  -0.006  -0.682  0.00  0.00    +0.139 A 
BRANCH   7  10
ATOM     10  C   UNL     1       4.949   1.500   0.833  0.00  0.00    +0.434 C 
ATOM     11  F   UNL     1       4.944   2.531  -0.091  0.00  0.00    -0.164 F 
ATOM     12  F   UNL     1       6.136   0.801   0.717  0.00  0.00    -0.164 F 
ATOM     13  F   UNL     1       4.859   2.038   2.103  0.00  0.00    -0.164 F 
ENDBRANCH   7  10
ENDBRANCH   1   4
BRANCH   1  15
ATOM     14  C   UNL     1      -2.216  -2.086  -1.063  0.00  0.00    +0.132 C 
ATOM     15  N   UNL     1      -1.135  -1.204  -0.595  0.00  0.00    -0.174 NA
BRANCH  15  16
ATOM     16  C   UNL     1      -1.559  -0.437   0.591  0.00  0.00    +0.166 C 
BRANCH  16  17
ATOM     17  C   UNL     1      -2.438   0.710   0.184  0.00  0.00    +0.075 A 
ATOM     18  C   UNL     1      -1.915   1.801  -0.523  0.00  0.00    +0.135 A 
ATOM     19  N   UNL     1      -2.739   2.815  -0.893  0.00  0.00    -0.260 NA
ATOM     20  C   UNL     1      -4.064   2.791  -0.593  0.00  0.00    +0.130 A 
ATOM     21  C   UNL     1      -4.590   1.703   0.107  0.00  0.00    +0.131 A 
ATOM     22  N   UNL     1      -3.767   0.687   0.478  0.00  0.00    -0.256 NA
ENDBRANCH  16  17
ENDBRANCH  15  16
ENDBRANCH   1  15
TORSDOF 5
