REMARK  Name = 
REMARK  6 active torsions:
REMARK  status: ('A' for Active; 'I' for Inactive)
REMARK    1  A    between atoms: C_1  and  C_2
REMARK    2  A    between atoms: C_5  and  C_6
REMARK    3  A    between atoms: C_6  and  C_7
REMARK    4  A    between atoms: C_7  and  N_8
REMARK    5  A    between atoms: N_8  and  S_9
REMARK    6  A    between atoms: S_9  and  C_12
REMARK                            x       y       z     vdW  Elec       q    Type
REMARK                         _______ _______ _______ _____ _____    ______ ____
ROOT
ATOM      1  S   UNL     1      -0.412  -0.088   3.214  0.00  0.00    +0.058 S 
ATOM      2  O   UNL     1      -0.104   1.272   3.777  0.00  0.00    -0.153 OA
ATOM      3  O   UNL     1      -1.150  -0.879   4.256  0.00  0.00    -0.153 OA
ENDROOT
BRANCH   1   4
ATOM      4  C   UNL     1      -1.428   0.063   1.782  0.00  0.00    +0.106 A 
ATOM      5  C   UNL     1      -1.543   1.289   1.117  0.00  0.00    +0.029 A 
ATOM      6  C   UNL     1      -2.335   1.397  -0.027  0.00  0.00    +0.006 A 
ATOM      7  C   UNL     1      -3.031   0.282  -0.520  0.00  0.00    -0.044 A 
ATOM      8  C   UNL     1      -3.819   0.422  -1.802  0.00  0.00    +0.035 C 
ATOM      9  C   UNL     1      -4.820  -0.719  -2.005  0.00  0.00    +0.005 C 
ATOM     10  C   UNL     1      -4.141  -2.069  -1.778  0.00  0.00    +0.005 C 
ATOM     11  C   UNL     1      -3.657  -2.187  -0.330  0.00  0.00    +0.035 C 
ATOM     12  C   UNL     1      -2.892  -0.968   0.130  0.00  0.00    -0.042 A 
ATOM     13  C   UNL     1      -2.103  -1.059   1.287  0.00  0.00    +0.032 A 
ENDBRANCH   1   4
BRANCH   1  14
ATOM     14  N   UNL     1       1.066  -0.909   2.810  0.00  0.00    -0.190 NA
ATOM     15  H   UNL     1       1.623  -0.977   3.693  0.00  0.00    +0.148 HD
BRANCH  14  16
ATOM     16  C   UNL     1       1.828  -0.109   1.849  0.00  0.00    +0.112 C 
BRANCH  16  17
ATOM     17  C   UNL     1       3.085  -0.866   1.420  0.00  0.00    +0.079 C 
BRANCH  17  22
ATOM     18  C   UNL     1       6.348   2.516  -0.254  0.00  0.00    +0.066 C 
ATOM     19  C   UNL     1       5.272   1.486  -0.359  0.00  0.00    +0.046 A 
ATOM     20  C   UNL     1       4.739   1.065  -1.575  0.00  0.00    +0.070 A 
ATOM     21  S   UNL     1       3.598  -0.127  -1.250  0.00  0.00    -0.080 S 
ATOM     22  C   UNL     1       3.854  -0.074   0.411  0.00  0.00    +0.080 A 
ATOM     23  N   UNL     1       4.781   0.851   0.739  0.00  0.00    -0.249 NA
ENDBRANCH  17  22
ENDBRANCH  16  17
ENDBRANCH  14  16
ENDBRANCH   1  14
TORSDOF 5
