REMARK  Name = 
REMARK  7 active torsions:
REMARK  status: ('A' for Active; 'I' for Inactive)
REMARK    1  A    between atoms: C_2  and  O_3
REMARK    2  A    between atoms: C_2  and  C_4
REMARK    3  A    between atoms: C_4  and  N_10
REMARK    4  A    between atoms: C_11  and  C_13
REMARK    5  A    between atoms: C_13  and  C_14
REMARK    6  A    between atoms: C_14  and  C_15
REMARK    7  A    between atoms: C_18  and  C_20
REMARK                            x       y       z     vdW  Elec       q    Type
REMARK                         _______ _______ _______ _____ _____    ______ ____
ROOT
ATOM      1  C   UNL     1       0.002  -0.001  -1.122  0.00  0.00    +0.105 C 
ENDROOT
BRANCH   1   3
ATOM      2  N   UNL     1       2.530  -0.109  -0.873  0.00  0.00    -0.300 N 
ATOM      3  C   UNL     1       1.355   0.634  -1.241  0.00  0.00    +0.214 C 
ATOM      4  O   UNL     1       1.444   1.828  -1.635  0.00  0.00    -0.276 OA
ATOM      5  H   UNL     1       2.404  -1.132  -0.701  0.00  0.00    +0.150 HD
BRANCH   2   6
ATOM      6  C   UNL     1       3.877   0.485  -0.743  0.00  0.00    +0.131 C 
ATOM      7  C   UNL     1       4.911  -0.614  -0.376  0.00  0.00    +0.037 C 
ATOM      8  C   UNL     1       4.681  -1.203   1.027  0.00  0.00    +0.003 C 
ATOM      9  C   UNL     1       4.644  -0.106   2.096  0.00  0.00    +0.000 C 
ATOM     10  C   UNL     1       3.599   0.959   1.754  0.00  0.00    +0.003 C 
ATOM     11  C   UNL     1       3.878   1.567   0.374  0.00  0.00    +0.037 C 
BRANCH   6  13
ATOM     12  O   UNL     1       4.000   0.489  -3.147  0.00  0.00    -0.249 OA
ATOM     13  C   UNL     1       4.291   1.083  -2.073  0.00  0.00    +0.328 C 
BRANCH  13  14
ATOM     14  O   UNL     1       5.045   2.254  -2.124  0.00  0.00    -0.479 OA
ATOM     15  H   UNL     1       5.338   2.647  -3.011  0.00  0.00    +0.295 HD
ENDBRANCH  13  14
ENDBRANCH   6  13
ENDBRANCH   2   6
ENDBRANCH   1   3
BRANCH   1  16
ATOM     16  C   UNL     1      -0.483   0.056   0.327  0.00  0.00    +0.105 C 
BRANCH  16  17
ATOM     17  C   UNL     1      -1.838  -0.564   0.447  0.00  0.00    +0.197 A 
ATOM     18  N   UNL     1      -2.050  -1.808   0.924  0.00  0.00    -0.221 NA
ATOM     19  C   UNL     1      -3.385  -1.953   0.831  0.00  0.00    +0.161 A 
ATOM     20  C   UNL     1      -3.930  -0.799   0.299  0.00  0.00    +0.157 A 
ATOM     21  O   UNL     1      -2.945   0.034   0.072  0.00  0.00    -0.440 OA
BRANCH  20  22
ATOM     22  C   UNL     1      -5.362  -0.526   0.010  0.00  0.00    +0.037 A 
ATOM     23  C   UNL     1      -6.269  -1.601  -0.085  0.00  0.00    +0.014 A 
ATOM     24  C   UNL     1      -7.617  -1.375  -0.371  0.00  0.00    +0.021 A 
ATOM     25  C   UNL     1      -8.084  -0.076  -0.566  0.00  0.00    +0.042 A 
ATOM     26 CL   UNL     1      -9.778   0.204  -0.925  0.00  0.00    -0.083 Cl
ATOM     27  C   UNL     1      -7.201   1.002  -0.474  0.00  0.00    +0.040 A 
ATOM     28  C   UNL     1      -5.846   0.790  -0.188  0.00  0.00    +0.053 A 
ATOM     29 CL   UNL     1      -4.818   2.214  -0.053  0.00  0.00    -0.083 Cl
ENDBRANCH  20  22
ENDBRANCH  16  17
ENDBRANCH   1  16
TORSDOF 7
