REMARK  Name = 
REMARK  10 active torsions:
REMARK  status: ('A' for Active; 'I' for Inactive)
REMARK    1  A    between atoms: C_1  and  N_2
REMARK    2  A    between atoms: N_2  and  C_3
REMARK    3  A    between atoms: C_3  and  C_4
REMARK    4  A    between atoms: C_4  and  C_5
REMARK    5  A    between atoms: C_5  and  C_6
REMARK    6  A    between atoms: C_12  and  C_14
REMARK    7  A    between atoms: C_19  and  C_20
REMARK    8  A    between atoms: C_20  and  C_21
REMARK    9  A    between atoms: C_21  and  C_22
REMARK   10  A    between atoms: C_22  and  O_24
REMARK                            x       y       z     vdW  Elec       q    Type
REMARK                         _______ _______ _______ _____ _____    ______ ____
ROOT
ATOM      1  C   UNL     1      -0.384  -0.473   1.542  0.00  0.00    +0.132 C 
ATOM      2  N   UNL     1      -0.160  -0.489   0.091  0.00  0.00    -0.301 N 
ATOM      3  C   UNL     1      -1.165  -1.009  -0.809  0.00  0.00    +0.247 C 
ATOM      4  O   UNL     1      -0.901  -1.144  -2.035  0.00  0.00    -0.270 OA
ENDROOT
BRANCH   3   5
ATOM      5  C   UNL     1      -2.513  -1.387  -0.337  0.00  0.00    +0.040 A 
ATOM      6  C   UNL     1      -2.644  -2.529   0.471  0.00  0.00    +0.013 A 
ATOM      7  C   UNL     1      -3.899  -2.938   0.924  0.00  0.00    +0.001 A 
ATOM      8  C   UNL     1      -5.039  -2.221   0.566  0.00  0.00    +0.000 A 
ATOM      9  C   UNL     1      -4.930  -1.095  -0.252  0.00  0.00    +0.004 A 
ATOM     10  C   UNL     1      -3.674  -0.664  -0.718  0.00  0.00    -0.035 A 
BRANCH  10  11
ATOM     11  C   UNL     1      -3.620   0.574  -1.593  0.00  0.00    +0.047 C 
BRANCH  11  12
ATOM     12  C   UNL     1      -3.871   1.862  -0.798  0.00  0.00    +0.125 C 
BRANCH  12  13
ATOM     13  C   UNL     1      -2.771   2.139   0.179  0.00  0.00    +0.305 C 
ATOM     14  O   UNL     1      -3.003   2.104   1.417  0.00  0.00    -0.251 OA
BRANCH  13  15
ATOM     15  O   UNL     1      -1.492   2.438  -0.282  0.00  0.00    -0.481 OA
ATOM     16  H   UNL     1      -0.736   2.621   0.367  0.00  0.00    +0.295 HD
ENDBRANCH  13  15
ENDBRANCH  12  13
ENDBRANCH  11  12
ENDBRANCH  10  11
ENDBRANCH   3   5
BRANCH   2  17
ATOM     17  C   UNL     1       1.107   0.025  -0.446  0.00  0.00    +0.108 C 
BRANCH  17  18
ATOM     18  C   UNL     1       2.108  -1.123  -0.631  0.00  0.00    +0.024 C 
BRANCH  18  19
ATOM     19  C   UNL     1       3.423  -0.656  -1.270  0.00  0.00    +0.036 C 
BRANCH  19  20
ATOM     20  C   UNL     1       4.204   0.252  -0.354  0.00  0.00    -0.047 A 
ATOM     21  C   UNL     1       4.942  -0.286   0.713  0.00  0.00    +0.003 A 
ATOM     22  C   UNL     1       5.646   0.557   1.579  0.00  0.00    +0.000 A 
ATOM     23  C   UNL     1       5.614   1.942   1.388  0.00  0.00    +0.000 A 
ATOM     24  C   UNL     1       4.877   2.485   0.332  0.00  0.00    +0.000 A 
ATOM     25  C   UNL     1       4.172   1.646  -0.536  0.00  0.00    +0.003 A 
ENDBRANCH  19  20
ENDBRANCH  18  19
ENDBRANCH  17  18
ENDBRANCH   2  17
TORSDOF 9
