REMARK  Name = 
REMARK  11 active torsions:
REMARK  status: ('A' for Active; 'I' for Inactive)
REMARK    1  A    between atoms: C_1  and  C_2
REMARK    2  A    between atoms: C_2  and  C_3
REMARK    3  A    between atoms: C_7  and  C_8
REMARK    4  A    between atoms: C_8  and  C_9
REMARK    5  A    between atoms: C_10  and  N_11
REMARK    6  A    between atoms: C_12  and  C_14
REMARK    7  A    between atoms: C_14  and  O_15
REMARK    8  A    between atoms: O_15  and  C_16
REMARK    9  A    between atoms: C_19  and  N_22
REMARK   10  A    between atoms: C_23  and  C_25
REMARK   11  A    between atoms: C_29  and  C_30
REMARK                            x       y       z     vdW  Elec       q    Type
REMARK                         _______ _______ _______ _____ _____    ______ ____
ROOT
ATOM      1  C   UNL     1       0.473  -0.301   0.263  0.00  0.00    +0.121 A 
ATOM      2  C   UNL     1       1.503   0.224   1.052  0.00  0.00    +0.047 A 
ATOM      3  C   UNL     1       2.837  -0.100   0.789  0.00  0.00    +0.027 A 
ATOM      4  C   UNL     1       3.161  -0.968  -0.268  0.00  0.00    +0.034 A 
ATOM      5  C   UNL     1       2.131  -1.478  -1.072  0.00  0.00    +0.027 A 
ATOM      6  C   UNL     1       0.797  -1.156  -0.807  0.00  0.00    +0.047 A 
ENDROOT
BRANCH   4   7
ATOM      7  N   UNL     1       4.527  -1.296  -0.577  0.00  0.00    -0.281 N 
ATOM      8  C   UNL     1       5.566  -1.393   0.412  0.00  0.00    +0.248 C 
ATOM      9  O   UNL     1       5.264  -1.603   1.620  0.00  0.00    -0.270 OA
ATOM     10  H   UNL     1       4.751  -1.587  -1.555  0.00  0.00    +0.155 HD
BRANCH   8  11
ATOM     11  C   UNL     1       6.995  -1.296   0.023  0.00  0.00    +0.037 A 
ATOM     12  C   UNL     1       7.373  -0.679  -1.183  0.00  0.00    +0.013 A 
ATOM     13  C   UNL     1       8.721  -0.590  -1.540  0.00  0.00    +0.001 A 
ATOM     14  C   UNL     1       9.707  -1.106  -0.696  0.00  0.00    +0.003 A 
ATOM     15  C   UNL     1       9.351  -1.701   0.523  0.00  0.00    -0.050 A 
ATOM     16  C   UNL     1      10.407  -2.289   1.413  0.00  0.00    +0.044 C 
ATOM     17  C   UNL     1       7.996  -1.805   0.872  0.00  0.00    +0.016 A 
ENDBRANCH   8  11
ENDBRANCH   4   7
BRANCH   1  18
ATOM     18  O   UNL     1      -0.849   0.054   0.569  0.00  0.00    -0.483 OA
BRANCH  18  19
ATOM     19  C   UNL     1      -1.994  -0.416  -0.139  0.00  0.00    +0.324 C 
BRANCH  19  21
ATOM     20  N   UNL     1      -4.323   0.564  -0.379  0.00  0.00    -0.282 N 
ATOM     21  C   UNL     1      -3.234   0.164   0.463  0.00  0.00    +0.255 C 
ATOM     22  O   UNL     1      -3.335   0.253   1.716  0.00  0.00    -0.272 OA
ATOM     23  H   UNL     1      -4.227   0.495  -1.417  0.00  0.00    +0.155 HD
BRANCH  20  29
ATOM     24  C   UNL     1      -6.552   0.396   0.671  0.00  0.00    -0.026 A 
ATOM     25  C   UNL     1      -7.713   1.022   1.151  0.00  0.00    +0.005 A 
ATOM     26  C   UNL     1      -7.828   2.412   1.131  0.00  0.00    +0.001 A 
ATOM     27  C   UNL     1      -6.791   3.195   0.626  0.00  0.00    +0.005 A 
ATOM     28  C   UNL     1      -5.617   2.597   0.140  0.00  0.00    -0.026 A 
ATOM     29  C   UNL     1      -5.499   1.188   0.154  0.00  0.00    +0.040 A 
BRANCH  24  31
ATOM     30  C   UNL     1      -6.929  -1.651  -0.715  0.00  0.00    +0.009 C 
ATOM     31  C   UNL     1      -6.490  -1.114   0.645  0.00  0.00    +0.033 C 
ENDBRANCH  24  31
BRANCH  28  32
ATOM     32  C   UNL     1      -4.531   3.474  -0.437  0.00  0.00    +0.033 C 
ATOM     33  C   UNL     1      -4.744   3.688  -1.933  0.00  0.00    +0.009 C 
ENDBRANCH  28  32
ENDBRANCH  20  29
ENDBRANCH  19  21
ENDBRANCH  18  19
ENDBRANCH   1  18
TORSDOF 8
