REMARK  Name = 
REMARK  10 active torsions:
REMARK  status: ('A' for Active; 'I' for Inactive)
REMARK    1  A    between atoms: C_1  and  C_2
REMARK    2  A    between atoms: N_4  and  C_5
REMARK    3  A    between atoms: C_8  and  C_11
REMARK    4  A    between atoms: N_13  and  C_14
REMARK    5  A    between atoms: N_13  and  C_21
REMARK    6  A    between atoms: C_14  and  C_15
REMARK    7  A    between atoms: C_21  and  C_22
REMARK    8  A    between atoms: C_22  and  C_23
REMARK    9  A    between atoms: C_22  and  C_24
REMARK   10  A    between atoms: C_24  and  O_26
REMARK                            x       y       z     vdW  Elec       q    Type
REMARK                         _______ _______ _______ _____ _____    ______ ____
ROOT
ATOM      1  C   UNL     1      -0.587  -0.812  -1.452  0.00  0.00    +0.247 C 
ATOM      2  O   UNL     1      -0.898  -1.849  -2.097  0.00  0.00    -0.270 OA
ATOM      3  N   UNL     1      -1.541   0.265  -1.309  0.00  0.00    -0.292 N 
ENDROOT
BRANCH   1   7
ATOM      4  C   UNL     1       3.350  -0.535   0.220  0.00  0.00    +0.033 A 
ATOM      5  C   UNL     1       2.224  -0.574   1.056  0.00  0.00    +0.024 A 
ATOM      6  C   UNL     1       0.941  -0.680   0.512  0.00  0.00    +0.015 A 
ATOM      7  C   UNL     1       0.764  -0.720  -0.876  0.00  0.00    +0.037 A 
ATOM      8  C   UNL     1       1.884  -0.681  -1.717  0.00  0.00    +0.015 A 
ATOM      9  C   UNL     1       3.168  -0.576  -1.175  0.00  0.00    +0.024 A 
BRANCH   4  13
ATOM     10  C   UNL     1       7.185  -0.593   0.817  0.00  0.00    +0.109 C 
ATOM     11  C   UNL     1       5.854  -0.960   0.246  0.00  0.00    +0.214 C 
ATOM     12  O   UNL     1       5.793  -1.827  -0.666  0.00  0.00    -0.276 OA
ATOM     13  N   UNL     1       4.656  -0.397   0.804  0.00  0.00    -0.286 N 
ATOM     14  H   UNL     1       4.731   0.074   1.735  0.00  0.00    +0.155 HD
ENDBRANCH   4  13
ENDBRANCH   1   7
BRANCH   3  15
ATOM     15  C   UNL     1      -2.971  -0.010  -1.521  0.00  0.00    +0.143 C 
BRANCH  15  16
ATOM     16  C   UNL     1      -3.484  -1.063  -0.567  0.00  0.00    -0.030 A 
ATOM     17  C   UNL     1      -3.143  -1.031   0.798  0.00  0.00    +0.005 A 
ATOM     18  C   UNL     1      -3.649  -1.996   1.675  0.00  0.00    +0.000 A 
ATOM     19  C   UNL     1      -4.508  -2.990   1.203  0.00  0.00    +0.000 A 
ATOM     20  C   UNL     1      -4.865  -3.022  -0.148  0.00  0.00    +0.000 A 
ATOM     21  C   UNL     1      -4.360  -2.061  -1.029  0.00  0.00    +0.005 A 
ENDBRANCH  15  16
ENDBRANCH   3  15
BRANCH   3  22
ATOM     22  C   UNL     1      -1.070   1.662  -1.307  0.00  0.00    +0.122 C 
BRANCH  22  23
ATOM     23  C   UNL     1      -1.010   2.252   0.119  0.00  0.00    +0.112 C 
ATOM     24  C   UNL     1      -2.371   2.794   0.576  0.00  0.00    +0.021 C 
BRANCH  23  25
ATOM     25  C   UNL     1       0.014   3.352   0.177  0.00  0.00    +0.309 C 
ATOM     26  O   UNL     1       1.044   3.219   0.891  0.00  0.00    -0.251 OA
BRANCH  25  27
ATOM     27  O   UNL     1      -0.164   4.513  -0.572  0.00  0.00    -0.480 OA
ATOM     28  H   UNL     1       0.524   5.255  -0.550  0.00  0.00    +0.295 HD
ENDBRANCH  25  27
ENDBRANCH  23  25
ENDBRANCH  22  23
ENDBRANCH   3  22
TORSDOF 8
