REMARK  Name = 
REMARK  9 active torsions:
REMARK  status: ('A' for Active; 'I' for Inactive)
REMARK    1  A    between atoms: C_1  and  C_2
REMARK    2  A    between atoms: N_4  and  C_5
REMARK    3  A    between atoms: C_8  and  S_11
REMARK    4  A    between atoms: S_11  and  N_14
REMARK    5  A    between atoms: N_14  and  C_15
REMARK    6  A    between atoms: C_15  and  C_16
REMARK    7  A    between atoms: C_15  and  C_20
REMARK    8  A    between atoms: C_16  and  C_17
REMARK    9  A    between atoms: C_17  and  O_19
REMARK                            x       y       z     vdW  Elec       q    Type
REMARK                         _______ _______ _______ _____ _____    ______ ____
ROOT
ATOM      1  N   UNL     1      -1.381   1.871   1.490  0.00  0.00    -0.182 NA
ATOM      2  H   UNL     1      -2.295   1.970   1.981  0.00  0.00    +0.149 HD
ENDROOT
BRANCH   1   3
ATOM      3  S   UNL     1      -0.445   0.669   2.338  0.00  0.00    +0.059 S 
ATOM      4  O   UNL     1      -1.297  -0.540   2.607  0.00  0.00    -0.153 OA
ATOM      5  O   UNL     1      -0.005   1.238   3.657  0.00  0.00    -0.153 OA
BRANCH   3   9
ATOM      6  C   UNL     1       3.271  -0.494  -0.068  0.00  0.00    +0.033 A 
ATOM      7  C   UNL     1       2.226  -1.419   0.112  0.00  0.00    +0.025 A 
ATOM      8  C   UNL     1       1.096  -1.072   0.859  0.00  0.00    +0.030 A 
ATOM      9  C   UNL     1       0.988   0.208   1.421  0.00  0.00    +0.105 A 
ATOM     10  C   UNL     1       2.012   1.140   1.220  0.00  0.00    +0.030 A 
ATOM     11  C   UNL     1       3.143   0.794   0.475  0.00  0.00    +0.025 A 
BRANCH   6  15
ATOM     12  C   UNL     1       6.171  -2.379  -1.850  0.00  0.00    +0.109 C 
ATOM     13  C   UNL     1       5.029  -2.126  -0.918  0.00  0.00    +0.214 C 
ATOM     14  O   UNL     1       4.656  -3.047  -0.142  0.00  0.00    -0.276 OA
ATOM     15  N   UNL     1       4.441  -0.817  -0.842  0.00  0.00    -0.286 N 
ATOM     16  H   UNL     1       4.956  -0.029  -1.299  0.00  0.00    +0.155 HD
ENDBRANCH   6  15
ENDBRANCH   3   9
ENDBRANCH   1   3
BRANCH   1  17
ATOM     17  C   UNL     1      -1.562   1.541   0.063  0.00  0.00    +0.118 C 
BRANCH  17  18
ATOM     18  C   UNL     1      -2.345   0.246  -0.178  0.00  0.00    -0.010 A 
ATOM     19  C   UNL     1      -3.531  -0.023   0.541  0.00  0.00    +0.006 A 
ATOM     20  C   UNL     1      -4.249  -1.201   0.324  0.00  0.00    +0.000 A 
ATOM     21  C   UNL     1      -3.811  -2.123  -0.624  0.00  0.00    +0.001 A 
ATOM     22  C   UNL     1      -2.663  -1.862  -1.371  0.00  0.00    +0.020 A 
ATOM     23  C   UNL     1      -1.934  -0.683  -1.168  0.00  0.00    +0.046 A 
ATOM     24 CL   UNL     1      -0.535  -0.412  -2.205  0.00  0.00    -0.083 Cl
ENDBRANCH  17  18
BRANCH  17  25
ATOM     25  C   UNL     1      -2.180   2.731  -0.701  0.00  0.00    +0.145 C 
BRANCH  25  26
ATOM     26  C   UNL     1      -3.542   3.122  -0.206  0.00  0.00    +0.307 C 
ATOM     27  O   UNL     1      -3.660   3.895   0.783  0.00  0.00    -0.251 OA
BRANCH  26  28
ATOM     28  O   UNL     1      -4.679   2.614  -0.828  0.00  0.00    -0.481 OA
ATOM     29  H   UNL     1      -5.605   2.852  -0.493  0.00  0.00    +0.295 HD
ENDBRANCH  26  28
ENDBRANCH  25  26
ENDBRANCH  17  25
ENDBRANCH   1  17
TORSDOF 8
