REMARK  Name = 
REMARK  5 active torsions:
REMARK  status: ('A' for Active; 'I' for Inactive)
REMARK    1  A    between atoms: C_1  and  C_2
REMARK    2  A    between atoms: C_5  and  S_11
REMARK    3  A    between atoms: C_7  and  C_8
REMARK    4  A    between atoms: S_11  and  N_14
REMARK    5  A    between atoms: C_18  and  C_19
REMARK                            x       y       z     vdW  Elec       q    Type
REMARK                         _______ _______ _______ _____ _____    ______ ____
ROOT
ATOM      1  C   UNL     1       4.806  -0.946  -0.697  0.00  0.00    +0.044 C 
ATOM      2  C   UNL     1       3.449  -0.734  -0.076  0.00  0.00    -0.038 A 
ATOM      3  C   UNL     1       2.730  -1.859   0.360  0.00  0.00    +0.006 A 
ATOM      4  C   UNL     1       1.450  -1.722   0.900  0.00  0.00    +0.029 A 
ATOM      5  C   UNL     1       0.870  -0.457   1.021  0.00  0.00    +0.106 A 
ATOM      6  C   UNL     1       1.580   0.674   0.603  0.00  0.00    +0.041 A 
ATOM      7  C   UNL     1       2.879   0.555   0.078  0.00  0.00    +0.041 A 
ENDROOT
BRANCH   7   8
ATOM      8  C   UNL     1       3.592   1.792  -0.311  0.00  0.00    +0.242 C 
ATOM      9  N   UNL     1       4.935   2.031   0.111  0.00  0.00    -0.325 N 
ATOM     10  O   UNL     1       2.991   2.670  -0.987  0.00  0.00    -0.270 OA
ATOM     11  H   UNL     1       5.401   1.402   0.800  0.00  0.00    +0.145 HD
ATOM     12  H   UNL     1       5.439   2.889  -0.205  0.00  0.00    +0.145 HD
ENDBRANCH   7   8
BRANCH   5  13
ATOM     13  S   UNL     1      -0.760  -0.277   1.665  0.00  0.00    +0.061 S 
ATOM     14  O   UNL     1      -1.160  -1.524   2.406  0.00  0.00    -0.153 OA
ATOM     15  O   UNL     1      -0.776   0.877   2.628  0.00  0.00    -0.153 OA
BRANCH  13  16
ATOM     16  N   UNL     1      -1.877   0.033   0.359  0.00  0.00    -0.172 NA
ATOM     17  C   UNL     1      -1.800  -1.052  -0.637  0.00  0.00    +0.137 C 
ATOM     18  C   UNL     1      -2.998  -0.999  -1.605  0.00  0.00    +0.177 C 
ATOM     19  O   UNL     1      -3.631   0.264  -1.550  0.00  0.00    -0.374 OA
ATOM     20  C   UNL     1      -4.231   0.455  -0.277  0.00  0.00    +0.131 C 
ATOM     21  C   UNL     1      -4.737   1.895  -0.198  0.00  0.00    +0.039 C 
ATOM     22  C   UNL     1      -3.245   0.147   0.884  0.00  0.00    +0.140 C 
ENDBRANCH  13  16
ENDBRANCH   5  13
TORSDOF 3
