REMARK  Name = 
REMARK  5 active torsions:
REMARK  status: ('A' for Active; 'I' for Inactive)
REMARK    1  A    between atoms: S_2  and  N_4
REMARK    2  A    between atoms: S_2  and  C_18
REMARK    3  A    between atoms: N_4  and  C_5
REMARK    4  A    between atoms: C_8  and  C_11
REMARK    5  A    between atoms: C_11  and  C_12
REMARK                            x       y       z     vdW  Elec       q    Type
REMARK                         _______ _______ _______ _____ _____    ______ ____
ROOT
ATOM      1  C   UNL     1      -0.893   1.215   1.879  0.00  0.00    +0.048 A 
ATOM      2  C   UNL     1      -0.458  -0.122   1.933  0.00  0.00    +0.025 A 
ATOM      3  C   UNL     1       0.844  -0.459   1.551  0.00  0.00    +0.006 A 
ATOM      4  C   UNL     1       1.737   0.535   1.123  0.00  0.00    -0.043 A 
ATOM      5  C   UNL     1       1.306   1.869   1.070  0.00  0.00    +0.006 A 
ATOM      6  C   UNL     1       0.005   2.205   1.453  0.00  0.00    +0.025 A 
ENDROOT
BRANCH   1   7
ATOM      7  N   UNL     1      -2.231   1.593   2.250  0.00  0.00    -0.216 N 
ATOM      8  H   UNL     1      -2.469   2.608   2.323  0.00  0.00    +0.174 HD
BRANCH   7  10
ATOM      9  O   UNL     1      -4.831   1.220   2.557  0.00  0.00    -0.149 OA
ATOM     10  S   UNL     1      -3.539   0.466   2.420  0.00  0.00    +0.079 S 
ATOM     11  O   UNL     1      -3.321  -0.366   3.653  0.00  0.00    -0.149 OA
BRANCH  10  12
ATOM     12  C   UNL     1      -3.629  -0.560   1.001  0.00  0.00    +0.146 A 
ATOM     13  C   UNL     1      -3.392  -0.156  -0.303  0.00  0.00    +0.036 A 
ATOM     14  C   UNL     1      -3.507  -1.201  -1.227  0.00  0.00    +0.010 A 
ATOM     15  C   UNL     1      -3.834  -2.422  -0.649  0.00  0.00    +0.047 A 
ATOM     16  S   UNL     1      -3.977  -2.203   1.014  0.00  0.00    -0.077 S 
ENDBRANCH  10  12
ENDBRANCH   7  10
ENDBRANCH   1   7
BRANCH   4  17
ATOM     17  C   UNL     1       3.121   0.164   0.664  0.00  0.00    +0.070 C 
BRANCH  17  18
ATOM     18  C   UNL     1       3.110  -0.162  -0.804  0.00  0.00    -0.040 A 
ATOM     19  C   UNL     1       3.295   0.850  -1.758  0.00  0.00    +0.023 A 
ATOM     20  C   UNL     1       3.243   0.532  -3.117  0.00  0.00    +0.111 A 
ATOM     21  N   UNL     1       3.005  -0.748  -3.510  0.00  0.00    -0.263 NA
ATOM     22  C   UNL     1       2.811  -1.746  -2.607  0.00  0.00    +0.111 A 
ATOM     23  C   UNL     1       2.855  -1.472  -1.238  0.00  0.00    +0.023 A 
ENDBRANCH  17  18
ENDBRANCH   4  17
TORSDOF 5
