REMARK  Name = 
REMARK  6 active torsions:
REMARK  status: ('A' for Active; 'I' for Inactive)
REMARK    1  A    between atoms: C_1  and  O_2
REMARK    2  A    between atoms: O_2  and  C_3
REMARK    3  A    between atoms: C_6  and  C_9
REMARK    4  A    between atoms: C_11  and  C_12
REMARK    5  A    between atoms: C_12  and  S_13
REMARK    6  A    between atoms: S_13  and  C_16
REMARK                            x       y       z     vdW  Elec       q    Type
REMARK                         _______ _______ _______ _____ _____    ______ ____
ROOT
ATOM      1  C   UNL     1       0.658  -0.496   0.784  0.00  0.00    +0.259 A 
ATOM      2  N   UNL     1       0.083  -1.692   0.549  0.00  0.00    -0.190 NA
ATOM      3  C   UNL     1      -1.069  -1.573   1.240  0.00  0.00    +0.193 A 
ATOM      4  N   UNL     1      -1.192  -0.374   1.841  0.00  0.00    -0.059 NA
ATOM      5  O   UNL     1      -0.101   0.260   1.541  0.00  0.00    -0.333 OA
ENDROOT
BRANCH   1   9
ATOM      6  C   UNL     1       4.476   0.709  -0.772  0.00  0.00    +0.120 A 
ATOM      7  C   UNL     1       3.729   1.583   0.041  0.00  0.00    +0.046 A 
ATOM      8  C   UNL     1       2.487   1.187   0.547  0.00  0.00    +0.017 A 
ATOM      9  C   UNL     1       1.971  -0.085   0.250  0.00  0.00    +0.040 A 
ATOM     10  C   UNL     1       2.717  -0.954  -0.562  0.00  0.00    +0.017 A 
ATOM     11  C   UNL     1       3.959  -0.557  -1.066  0.00  0.00    +0.046 A 
BRANCH   6  13
ATOM     12  C   UNL     1       6.370   2.311  -1.085  0.00  0.00    +0.277 C 
ATOM     13  O   UNL     1       5.726   1.059  -1.303  0.00  0.00    -0.495 OA
ENDBRANCH   6  13
ENDBRANCH   1   9
BRANCH   3  14
ATOM     14  C   UNL     1      -2.140  -2.613   1.246  0.00  0.00    +0.251 C 
BRANCH  14  15
ATOM     15  S   UNL     1      -3.084  -2.531  -0.265  0.00  0.00    +0.004 S 
ATOM     16  O   UNL     1      -2.219  -2.942  -1.424  0.00  0.00    -0.169 OA
ATOM     17  O   UNL     1      -4.249  -3.477  -0.178  0.00  0.00    -0.169 OA
BRANCH  15  18
ATOM     18  C   UNL     1      -3.672  -0.889  -0.515  0.00  0.00    +0.089 A 
ATOM     19  C   UNL     1      -2.907   0.030  -1.248  0.00  0.00    +0.027 A 
ATOM     20  C   UNL     1      -3.360   1.341  -1.421  0.00  0.00    +0.002 A 
ATOM     21  C   UNL     1      -4.577   1.741  -0.860  0.00  0.00    +0.000 A 
ATOM     22  C   UNL     1      -5.340   0.830  -0.123  0.00  0.00    +0.002 A 
ATOM     23  C   UNL     1      -4.888  -0.482   0.052  0.00  0.00    +0.027 A 
ENDBRANCH  15  18
ENDBRANCH  14  15
ENDBRANCH   3  14
TORSDOF 5
