REMARK  Name = 
REMARK  6 active torsions:
REMARK  status: ('A' for Active; 'I' for Inactive)
REMARK    1  A    between atoms: C_1  and  C_2
REMARK    2  A    between atoms: C_4  and  C_5
REMARK    3  A    between atoms: C_5  and  N_6
REMARK    4  A    between atoms: N_6  and  C_7
REMARK    5  A    between atoms: N_6  and  S_8
REMARK    6  A    between atoms: S_8  and  C_11
REMARK                            x       y       z     vdW  Elec       q    Type
REMARK                         _______ _______ _______ _____ _____    ______ ____
ROOT
ATOM      1  S   UNL     1      -1.245  -1.589  -1.283  0.00  0.00    +0.061 S 
ATOM      2  O   UNL     1      -2.303  -2.656  -1.261  0.00  0.00    -0.153 OA
ATOM      3  O   UNL     1      -1.389  -0.822  -2.568  0.00  0.00    -0.153 OA
ENDROOT
BRANCH   1   4
ATOM      4  C   UNL     1      -1.528  -0.503   0.084  0.00  0.00    +0.106 A 
ATOM      5  C   UNL     1      -1.556   0.888  -0.104  0.00  0.00    +0.031 A 
ATOM      6  C   UNL     1      -1.779   1.742   0.980  0.00  0.00    +0.040 A 
ATOM      7  C   UNL     1      -1.998   1.212   2.255  0.00  0.00    +0.124 A 
ATOM      8  F   UNL     1      -2.214   2.041   3.306  0.00  0.00    -0.205 F 
ATOM      9  C   UNL     1      -2.004  -0.172   2.443  0.00  0.00    +0.040 A 
ATOM     10  C   UNL     1      -1.779  -1.028   1.361  0.00  0.00    +0.031 A 
ENDBRANCH   1   4
BRANCH   1  11
ATOM     11  N   UNL     1       0.329  -2.357  -1.243  0.00  0.00    -0.174 NA
ATOM     12  C   UNL     1       0.594  -3.005   0.047  0.00  0.00    +0.132 C 
BRANCH  11  13
ATOM     13  C   UNL     1       1.428  -1.483  -1.703  0.00  0.00    +0.168 C 
BRANCH  13  17
ATOM     14  C   UNL     1       1.726   3.297  -0.113  0.00  0.00    +0.089 C 
ATOM     15  C   UNL     1       1.776   1.811  -0.208  0.00  0.00    +0.135 A 
ATOM     16  C   UNL     1       1.429   1.054  -1.305  0.00  0.00    +0.072 A 
ATOM     17  C   UNL     1       1.620  -0.242  -0.873  0.00  0.00    +0.099 A 
ATOM     18  N   UNL     1       2.079  -0.235   0.395  0.00  0.00    -0.082 NA
ATOM     19  O   UNL     1       2.151   1.012   0.763  0.00  0.00    -0.360 OA
ENDBRANCH  13  17
ENDBRANCH  11  13
ENDBRANCH   1  11
TORSDOF 4
