REMARK  Name = 
REMARK  6 active torsions:
REMARK  status: ('A' for Active; 'I' for Inactive)
REMARK    1  A    between atoms: C_1  and  C_2
REMARK    2  A    between atoms: C_4  and  N_11
REMARK    3  A    between atoms: C_7  and  C_8
REMARK    4  A    between atoms: C_8  and  O_10
REMARK    5  A    between atoms: N_11  and  S_12
REMARK    6  A    between atoms: S_12  and  C_15
REMARK                            x       y       z     vdW  Elec       q    Type
REMARK                         _______ _______ _______ _____ _____    ______ ____
ROOT
ATOM      1  N   UNL     1      -0.913   1.327   2.673  0.00  0.00    -0.216 N 
ATOM      2  H   UNL     1      -0.938   1.359   3.717  0.00  0.00    +0.174 HD
ENDROOT
BRANCH   1   6
ATOM      3  C   UNL     1      -2.513  -0.752  -1.567  0.00  0.00    +0.044 C 
ATOM      4  C   UNL     1      -2.429  -0.786  -0.062  0.00  0.00    -0.035 A 
ATOM      5  C   UNL     1      -1.770   0.269   0.593  0.00  0.00    +0.028 A 
ATOM      6  C   UNL     1      -1.610   0.270   1.989  0.00  0.00    +0.048 A 
ATOM      7  C   UNL     1      -2.145  -0.786   2.732  0.00  0.00    +0.025 A 
ATOM      8  C   UNL     1      -2.820  -1.830   2.101  0.00  0.00    +0.017 A 
ATOM      9  C   UNL     1      -2.984  -1.846   0.704  0.00  0.00    +0.062 A 
BRANCH   9  10
ATOM     10  C   UNL     1      -3.738  -2.974   0.095  0.00  0.00    +0.337 C 
ATOM     11  O   UNL     1      -3.822  -4.075   0.703  0.00  0.00    -0.245 OA
BRANCH  10  12
ATOM     12  O   UNL     1      -4.389  -2.826  -1.126  0.00  0.00    -0.477 OA
ATOM     13  H   UNL     1      -4.911  -3.593  -1.534  0.00  0.00    +0.295 HD
ENDBRANCH  10  12
ENDBRANCH   9  10
ENDBRANCH   1   6
BRANCH   1  14
ATOM     14  S   UNL     1       0.129   2.467   1.880  0.00  0.00    +0.072 S 
ATOM     15  O   UNL     1      -0.710   3.436   1.095  0.00  0.00    -0.150 OA
ATOM     16  O   UNL     1       0.915   3.225   2.912  0.00  0.00    -0.150 OA
BRANCH  14  17
ATOM     17  C   UNL     1       1.253   1.614   0.826  0.00  0.00    +0.112 A 
ATOM     18  C   UNL     1       1.896   0.456   1.288  0.00  0.00    +0.032 A 
ATOM     19  C   UNL     1       2.774  -0.244   0.453  0.00  0.00    +0.051 A 
ATOM     20  C   UNL     1       3.014   0.215  -0.844  0.00  0.00    +0.162 A 
ATOM     21  O   UNL     1       3.908  -0.454  -1.687  0.00  0.00    -0.485 OA
ATOM     22  C   UNL     1       4.367   0.146  -2.901  0.00  0.00    +0.270 C 
ATOM     23  C   UNL     1       3.225   0.914  -3.579  0.00  0.00    +0.270 C 
ATOM     24  O   UNL     1       2.575   1.771  -2.636  0.00  0.00    -0.485 OA
ATOM     25  C   UNL     1       2.355   1.357  -1.318  0.00  0.00    +0.164 A 
ATOM     26  C   UNL     1       1.490   2.067  -0.481  0.00  0.00    +0.078 A 
ENDBRANCH  14  17
ENDBRANCH   1  14
TORSDOF 5
