REMARK  Name = 
REMARK  10 active torsions:
REMARK  status: ('A' for Active; 'I' for Inactive)
REMARK    1  A    between atoms: C_1  and  O_2
REMARK    2  A    between atoms: O_2  and  C_3
REMARK    3  A    between atoms: C_3  and  C_4
REMARK    4  A    between atoms: C_3  and  C_5
REMARK    5  A    between atoms: C_3  and  C_19
REMARK    6  A    between atoms: N_7  and  CA_8
REMARK    7  A    between atoms: CA_8  and  CB_9
REMARK    8  A    between atoms: CA_8  and  C_16
REMARK    9  A    between atoms: CB_9  and  CG_10
REMARK   10  A    between atoms: C_16  and  OXT_18
REMARK                            x       y       z     vdW  Elec       q    Type
REMARK                         _______ _______ _______ _____ _____    ______ ____
ROOT
ATOM      1  C   UNK A   0      -0.967  -0.146   1.343  0.00  0.00    +0.250 C 
ATOM      2  O   UNK A   0      -0.605  -0.973   2.225  0.00  0.00    -0.272 OA
ATOM      3  N   PHE A   1      -0.001   0.361   0.405  0.00  0.00    -0.299 N 
ATOM      4  H   PHE A   1      -0.304   1.080  -0.291  0.00  0.00    +0.150 HD
ENDROOT
BRANCH   1   5
ATOM      5  C   UNK A   0      -2.406   0.332   1.307  0.00  0.00    +0.166 C 
ATOM      6  C   UNK A   0      -2.405   1.794   1.830  0.00  0.00    +0.057 C 
BRANCH   5   7
ATOM      7  C   UNK A   0      -2.907   0.178  -0.138  0.00  0.00    -0.007 A 
ATOM      8  C   UNK A   0      -3.148  -1.118  -0.640  0.00  0.00    +0.007 A 
ATOM      9  C   UNK A   0      -3.577  -1.307  -1.956  0.00  0.00    +0.000 A 
ATOM     10  C   UNK A   0      -3.764  -0.209  -2.796  0.00  0.00    +0.000 A 
ATOM     11  C   UNK A   0      -3.516   1.080  -2.324  0.00  0.00    +0.000 A 
ATOM     12  C   UNK A   0      -3.086   1.277  -1.008  0.00  0.00    +0.007 A 
ENDBRANCH   5   7
BRANCH   5  14
ATOM     13  C   UNK A   0      -4.505  -0.106   2.339  0.00  0.00    +0.195 C 
ATOM     14  O   UNK A   0      -3.158  -0.514   2.179  0.00  0.00    -0.363 OA
ENDBRANCH   5  14
ENDBRANCH   1   5
BRANCH   3  15
ATOM     15  CA  PHE A   1       1.398  -0.076   0.415  0.00  0.00    +0.186 C 
BRANCH  15  16
ATOM     16  C   PHE A   1       2.114   0.550   1.579  0.00  0.00    +0.326 C 
ATOM     17  O   PHE A   1       2.021   1.789   1.792  0.00  0.00    -0.249 OA
BRANCH  16  18
ATOM     18  OXT PHE A   1       2.910  -0.237   2.405  0.00  0.00    -0.479 OA
ATOM     19  HXT PHE A   1       3.412   0.170   3.185  0.00  0.00    +0.295 HD
ENDBRANCH  16  18
ENDBRANCH  15  16
BRANCH  15  20
ATOM     20  CB  PHE A   1       2.083   0.295  -0.914  0.00  0.00    +0.069 C 
BRANCH  20  21
ATOM     21  CG  PHE A   1       3.469  -0.291  -1.011  0.00  0.00    -0.045 A 
ATOM     22  CD1 PHE A   1       3.645  -1.631  -1.395  0.00  0.00    +0.004 A 
ATOM     23  CE1 PHE A   1       4.928  -2.184  -1.454  0.00  0.00    +0.000 A 
ATOM     24  CZ  PHE A   1       6.042  -1.406  -1.125  0.00  0.00    +0.000 A 
ATOM     25  CE2 PHE A   1       5.874  -0.075  -0.733  0.00  0.00    +0.000 A 
ATOM     26  CD2 PHE A   1       4.593   0.482  -0.673  0.00  0.00    +0.004 A 
ENDBRANCH  20  21
ENDBRANCH  15  20
ENDBRANCH   3  15
TORSDOF 8
