REMARK  Name = 
REMARK  4 active torsions:
REMARK  status: ('A' for Active; 'I' for Inactive)
REMARK    1  A    between atoms: C_2  and  C_3
REMARK    2  A    between atoms: C_7  and  S_9
REMARK    3  A    between atoms: S_9  and  N_12
REMARK    4  A    between atoms: N_12  and  C_13
REMARK                            x       y       z     vdW  Elec       q    Type
REMARK                         _______ _______ _______ _____ _____    ______ ____
ROOT
ATOM      1  N   UNL     1       0.335  -2.385  -0.239  0.00  0.00    -0.216 N 
ATOM      2  H   UNL     1       0.453  -3.368   0.096  0.00  0.00    +0.174 HD
ENDROOT
BRANCH   1   3
ATOM      3  C   UNL     1       1.341  -1.410   0.086  0.00  0.00    +0.050 A 
ATOM      4  C   UNL     1       2.407  -1.784   0.948  0.00  0.00    +0.025 A 
ATOM      5  C   UNL     1       3.410  -0.862   1.301  0.00  0.00    +0.013 A 
ATOM      6  C   UNL     1       3.318   0.420   0.774  0.00  0.00    +0.020 A 
ATOM      7  C   UNL     1       4.110   1.539   0.912  0.00  0.00    +0.142 A 
ATOM      8  N   UNL     1       3.565   2.537   0.174  0.00  0.00    -0.181 NA
ATOM      9  N   UNL     1       2.466   2.074  -0.413  0.00  0.00    -0.277 N 
ATOM     10  C   UNL     1       2.304   0.791  -0.057  0.00  0.00    +0.068 A 
ATOM     11  C   UNL     1       1.295  -0.091  -0.432  0.00  0.00    +0.052 A 
ATOM     12  H   UNL     1       1.848   2.634  -1.042  0.00  0.00    +0.189 HD
ENDBRANCH   1   3
BRANCH   1  13
ATOM     13  S   UNL     1      -1.145  -2.010  -1.065  0.00  0.00    +0.072 S 
ATOM     14  O   UNL     1      -0.830  -1.611  -2.480  0.00  0.00    -0.150 OA
ATOM     15  O   UNL     1      -2.025  -3.228  -1.085  0.00  0.00    -0.150 OA
BRANCH  13  20
ATOM     16  C   UNL     1      -3.314   1.323  -0.271  0.00  0.00    +0.054 A 
ATOM     17  C   UNL     1      -3.310   1.356   1.130  0.00  0.00    +0.019 A 
ATOM     18  C   UNL     1      -2.652   0.356   1.851  0.00  0.00    +0.003 A 
ATOM     19  C   UNL     1      -1.995  -0.678   1.177  0.00  0.00    +0.029 A 
ATOM     20  C   UNL     1      -1.991  -0.714  -0.224  0.00  0.00    +0.110 A 
ATOM     21  C   UNL     1      -2.656   0.287  -0.947  0.00  0.00    +0.047 A 
BRANCH  16  23
ATOM     22  N   UNL     1      -4.537   3.181  -1.611  0.00  0.00    -0.191 NA
ATOM     23  C   UNL     1      -3.992   2.353  -1.014  0.00  0.00    +0.099 C 
ENDBRANCH  16  23
ENDBRANCH  13  20
ENDBRANCH   1  13
TORSDOF 4
