REMARK  Name = 
REMARK  12 active torsions:
REMARK  status: ('A' for Active; 'I' for Inactive)
REMARK    1  A    between atoms: C_1  and  O_2
REMARK    2  A    between atoms: O_2  and  C_3
REMARK    3  A    between atoms: C_3  and  C_4
REMARK    4  A    between atoms: C_4  and  O_5
REMARK    5  A    between atoms: O_5  and  C_6
REMARK    6  A    between atoms: C_11  and  C_12
REMARK    7  A    between atoms: N_14  and  C_15
REMARK    8  A    between atoms: C_15  and  C_16
REMARK    9  A    between atoms: C_15  and  C_20
REMARK   10  A    between atoms: C_16  and  O_18
REMARK   11  A    between atoms: O_18  and  C_19
REMARK   12  A    between atoms: C_24  and  C_26
REMARK                            x       y       z     vdW  Elec       q    Type
REMARK                         _______ _______ _______ _____ _____    ______ ____
ROOT
ATOM      1  C   UNL     1       0.167  -2.076   0.779  0.00  0.00    +0.248 C 
ATOM      2  O   UNL     1       1.334  -2.440   1.088  0.00  0.00    -0.270 OA
ATOM      3  N   UNL     1      -0.120  -1.630  -0.558  0.00  0.00    -0.295 N 
ATOM      4  H   UNL     1      -1.117  -1.596  -0.868  0.00  0.00    +0.150 HD
ENDROOT
BRANCH   1  10
ATOM      5  C   UNL     1      -1.924  -1.181   1.873  0.00  0.00    +0.133 A 
ATOM      6  C   UNL     1      -2.942  -1.320   2.839  0.00  0.00    +0.046 A 
ATOM      7  C   UNL     1      -2.934  -2.399   3.726  0.00  0.00    +0.004 A 
ATOM      8  C   UNL     1      -1.914  -3.347   3.666  0.00  0.00    +0.001 A 
ATOM      9  C   UNL     1      -0.905  -3.229   2.708  0.00  0.00    +0.017 A 
ATOM     10  C   UNL     1      -0.909  -2.161   1.793  0.00  0.00    +0.078 A 
BRANCH   5  11
ATOM     11  O   UNL     1      -1.879  -0.075   1.008  0.00  0.00    -0.489 OA
BRANCH  11  12
ATOM     12  C   UNL     1      -2.830   0.987   0.996  0.00  0.00    +0.257 C 
BRANCH  12  13
ATOM     13  C   UNL     1      -2.434   2.008  -0.061  0.00  0.00    +0.200 C 
BRANCH  13  15
ATOM     14  C   UNL     1      -2.987   4.033  -1.003  0.00  0.00    +0.194 C 
ATOM     15  O   UNL     1      -3.390   3.046  -0.081  0.00  0.00    -0.380 OA
ENDBRANCH  13  15
ENDBRANCH  12  13
ENDBRANCH  11  12
ENDBRANCH   5  11
ENDBRANCH   1  10
BRANCH   3  16
ATOM     16  C   UNL     1       0.902  -1.219  -1.529  0.00  0.00    +0.213 C 
BRANCH  16  17
ATOM     17  C   UNL     1       1.678  -0.022  -1.008  0.00  0.00    -0.016 A 
ATOM     18  C   UNL     1       2.875  -0.170  -0.279  0.00  0.00    +0.006 A 
ATOM     19  C   UNL     1       3.537   0.949   0.228  0.00  0.00    +0.001 A 
ATOM     20  C   UNL     1       3.018   2.227   0.019  0.00  0.00    +0.012 A 
ATOM     21  C   UNL     1       1.829   2.402  -0.707  0.00  0.00    +0.055 A 
ATOM     22  C   UNL     1       1.151   1.269  -1.193  0.00  0.00    +0.018 A 
BRANCH  21  23
ATOM     23  C   UNL     1       1.260   3.789  -0.882  0.00  0.00    +0.417 C 
ATOM     24  F   UNL     1       0.647   4.183   0.293  0.00  0.00    -0.166 F 
ATOM     25  F   UNL     1       0.333   3.825  -1.909  0.00  0.00    -0.166 F 
ATOM     26  F   UNL     1       2.272   4.683  -1.182  0.00  0.00    -0.166 F 
ENDBRANCH  21  23
ENDBRANCH  16  17
BRANCH  16  27
ATOM     27  C   UNL     1       1.779  -2.373  -1.950  0.00  0.00    +0.332 C 
ATOM     28  O   UNL     1       1.452  -3.560  -1.670  0.00  0.00    -0.248 OA
BRANCH  27  29
ATOM     29  O   UNL     1       2.920  -2.118  -2.719  0.00  0.00    -0.466 OA
ATOM     30  C   UNL     1       3.804  -3.147  -3.145  0.00  0.00    +0.280 C 
ENDBRANCH  27  29
ENDBRANCH  16  27
ENDBRANCH   3  16
TORSDOF 10
