REMARK  Name = 
REMARK  10 active torsions:
REMARK  status: ('A' for Active; 'I' for Inactive)
REMARK    1  A    between atoms: C_1  and  S_2
REMARK    2  A    between atoms: S_2  and  N_5
REMARK    3  A    between atoms: N_5  and  C_6
REMARK    4  A    between atoms: C_10  and  C_12
REMARK    5  A    between atoms: N_14  and  C_15
REMARK    6  A    between atoms: C_15  and  C_16
REMARK    7  A    between atoms: C_19  and  C_22
REMARK    8  A    between atoms: C_22  and  O_23
REMARK    9  A    between atoms: O_23  and  C_24
REMARK   10  A    between atoms: C_24  and  C_25
REMARK                            x       y       z     vdW  Elec       q    Type
REMARK                         _______ _______ _______ _____ _____    ______ ____
ROOT
ATOM      1  C   UNL     1      -2.430  -1.049  -0.628  0.00  0.00    +0.244 C 
ATOM      2  O   UNL     1      -1.758  -2.021  -0.186  0.00  0.00    -0.270 OA
ATOM      3  N   UNL     1      -1.932  -0.290  -1.742  0.00  0.00    -0.307 N 
ATOM      4  H   UNL     1      -2.407   0.596  -2.024  0.00  0.00    +0.149 HD
ENDROOT
BRANCH   1   9
ATOM      5  C   UNL     1      -5.948   0.299  -0.052  0.00  0.00    +0.048 A 
ATOM      6  C   UNL     1      -6.135  -0.048   1.299  0.00  0.00    +0.024 A 
ATOM      7  C   UNL     1      -5.133  -0.719   2.000  0.00  0.00    +0.003 A 
ATOM      8  C   UNL     1      -3.931  -1.047   1.371  0.00  0.00    +0.013 A 
ATOM      9  C   UNL     1      -3.713  -0.697   0.028  0.00  0.00    +0.038 A 
ATOM     10  C   UNL     1      -4.734  -0.034  -0.677  0.00  0.00    +0.037 A 
BRANCH   5  11
ATOM     11  N   UNL     1      -6.962   0.980  -0.816  0.00  0.00    -0.221 N 
ATOM     12  H   UNL     1      -6.770   1.206  -1.817  0.00  0.00    +0.173 HD
BRANCH  11  14
ATOM     13  C   UNL     1      -9.534   0.032   0.089  0.00  0.00    +0.218 C 
ATOM     14  S   UNL     1      -8.511   1.462  -0.197  0.00  0.00    +0.040 S 
ATOM     15  O   UNL     1      -9.188   2.337  -1.214  0.00  0.00    -0.155 OA
ATOM     16  O   UNL     1      -8.339   2.248   1.072  0.00  0.00    -0.155 OA
ENDBRANCH  11  14
ENDBRANCH   5  11
ENDBRANCH   1   9
BRANCH   3  17
ATOM     17  C   UNL     1      -0.708  -0.656  -2.450  0.00  0.00    +0.139 C 
BRANCH  17  18
ATOM     18  C   UNL     1       0.498  -0.281  -1.632  0.00  0.00    -0.030 A 
ATOM     19  C   UNL     1       1.280  -1.270  -1.015  0.00  0.00    +0.005 A 
ATOM     20  C   UNL     1       2.384  -0.913  -0.236  0.00  0.00    +0.006 A 
ATOM     21  C   UNL     1       2.718   0.439  -0.059  0.00  0.00    -0.022 A 
ATOM     22  C   UNL     1       1.938   1.428  -0.678  0.00  0.00    +0.006 A 
ATOM     23  C   UNL     1       0.834   1.070  -1.456  0.00  0.00    +0.005 A 
BRANCH  21  24
ATOM     24  C   UNL     1       3.914   0.831   0.768  0.00  0.00    +0.195 C 
BRANCH  24  25
ATOM     25  O   UNL     1       4.912   1.418  -0.046  0.00  0.00    -0.371 OA
BRANCH  25  26
ATOM     26  C   UNL     1       5.747   0.430  -0.623  0.00  0.00    +0.195 C 
BRANCH  26  27
ATOM     27  C   UNL     1       6.873   0.078   0.311  0.00  0.00    -0.022 A 
ATOM     28  C   UNL     1       6.930  -1.189   0.917  0.00  0.00    +0.006 A 
ATOM     29  C   UNL     1       7.972  -1.504   1.795  0.00  0.00    +0.000 A 
ATOM     30  C   UNL     1       8.960  -0.556   2.078  0.00  0.00    +0.000 A 
ATOM     31  C   UNL     1       8.906   0.709   1.484  0.00  0.00    +0.000 A 
ATOM     32  C   UNL     1       7.866   1.027   0.604  0.00  0.00    +0.006 A 
ENDBRANCH  26  27
ENDBRANCH  25  26
ENDBRANCH  24  25
ENDBRANCH  21  24
ENDBRANCH  17  18
ENDBRANCH   3  17
TORSDOF 9
