REMARK  Name = 
REMARK  6 active torsions:
REMARK  status: ('A' for Active; 'I' for Inactive)
REMARK    1  A    between atoms: C_1  and  O_2
REMARK    2  A    between atoms: O_2  and  C_3
REMARK    3  A    between atoms: C_6  and  S_12
REMARK    4  A    between atoms: C_8  and  C_9
REMARK    5  A    between atoms: S_12  and  N_15
REMARK    6  A    between atoms: N_15  and  C_16
REMARK                            x       y       z     vdW  Elec       q    Type
REMARK                         _______ _______ _______ _____ _____    ______ ____
ROOT
ATOM      1  S   UNL     1       0.086   0.464  -2.691  0.00  0.00    +0.059 S 
ATOM      2  O   UNL     1       0.707  -0.089  -3.941  0.00  0.00    -0.153 OA
ATOM      3  O   UNL     1      -0.259   1.908  -2.930  0.00  0.00    -0.153 OA
ENDROOT
BRANCH   1   7
ATOM      4  C   UNL     1       3.082   0.079   0.751  0.00  0.00    +0.132 A 
ATOM      5  C   UNL     1       2.612   1.346   0.350  0.00  0.00    +0.048 A 
ATOM      6  C   UNL     1       1.703   1.465  -0.702  0.00  0.00    +0.032 A 
ATOM      7  C   UNL     1       1.253   0.326  -1.378  0.00  0.00    +0.106 A 
ATOM      8  C   UNL     1       1.718  -0.935  -0.992  0.00  0.00    +0.045 A 
ATOM      9  C   UNL     1       2.611  -1.074   0.084  0.00  0.00    +0.080 A 
BRANCH   9  10
ATOM     10  C   UNL     1       3.049  -2.432   0.482  0.00  0.00    +0.245 C 
ATOM     11  N   UNL     1       3.212  -2.785   1.857  0.00  0.00    -0.325 N 
ATOM     12  O   UNL     1       3.243  -3.308  -0.404  0.00  0.00    -0.270 OA
ATOM     13  H   UNL     1       2.894  -2.147   2.620  0.00  0.00    +0.145 HD
ATOM     14  H   UNL     1       3.566  -3.732   2.115  0.00  0.00    +0.145 HD
ENDBRANCH   9  10
BRANCH   4  16
ATOM     15  C   UNL     1       4.587   1.023   2.518  0.00  0.00    +0.277 C 
ATOM     16  O   UNL     1       4.026  -0.059   1.782  0.00  0.00    -0.494 OA
ENDBRANCH   4  16
ENDBRANCH   1   7
BRANCH   1  17
ATOM     17  N   UNL     1      -1.369  -0.427  -2.338  0.00  0.00    -0.178 NA
ATOM     18  H   UNL     1      -1.121  -1.431  -2.183  0.00  0.00    +0.149 HD
BRANCH  17  19
ATOM     19  C   UNL     1      -2.108   0.126  -1.186  0.00  0.00    +0.162 C 
ATOM     20  C   UNL     1      -1.520  -0.352   0.175  0.00  0.00    +0.030 C 
ATOM     21  C   UNL     1      -2.529  -0.497   1.332  0.00  0.00    +0.004 C 
ATOM     22  C   UNL     1      -3.286   0.798   1.684  0.00  0.00    +0.019 C 
ATOM     23  C   UNL     1      -4.165   1.388   0.559  0.00  0.00    +0.104 C 
ATOM     24  N   UNL     1      -4.541   0.393  -0.446  0.00  0.00    -0.314 N 
ATOM     25  C   UNL     1      -3.576  -0.215  -1.317  0.00  0.00    +0.232 C 
ATOM     26  O   UNL     1      -3.960  -1.066  -2.165  0.00  0.00    -0.274 OA
ATOM     27  H   UNL     1      -5.549   0.139  -0.552  0.00  0.00    +0.149 HD
ENDBRANCH  17  19
ENDBRANCH   1  17
TORSDOF 5
