REMARK  Name = 
REMARK  6 active torsions:
REMARK  status: ('A' for Active; 'I' for Inactive)
REMARK    1  A    between atoms: C_7  and  C_8
REMARK    2  A    between atoms: C_8  and  N_9
REMARK    3  A    between atoms: N_9  and  C_10
REMARK    4  A    between atoms: N_9  and  S_18
REMARK    5  A    between atoms: C_10  and  C_11
REMARK    6  A    between atoms: S_18  and  C_21
REMARK                            x       y       z     vdW  Elec       q    Type
REMARK                         _______ _______ _______ _____ _____    ______ ____
ROOT
ATOM      1  N   UNL     1      -0.812   0.286  -0.991  0.00  0.00    -0.165 NA
ENDROOT
BRANCH   1   2
ATOM      2  S   UNL     1      -2.459   0.701  -1.413  0.00  0.00    +0.063 S 
ATOM      3  O   UNL     1      -2.892  -0.085  -2.619  0.00  0.00    -0.153 OA
ATOM      4  O   UNL     1      -2.517   2.157  -1.789  0.00  0.00    -0.153 OA
BRANCH   2   5
ATOM      5  C   UNL     1      -3.563   0.420  -0.050  0.00  0.00    +0.125 A 
ATOM      6  C   UNL     1      -3.764   1.465   0.868  0.00  0.00    +0.050 A 
ATOM      7  C   UNL     1      -4.625   1.303   1.958  0.00  0.00    +0.043 A 
ATOM      8 CL   UNL     1      -4.869   2.624   3.087  0.00  0.00    -0.083 Cl
ATOM      9  C   UNL     1      -5.285   0.090   2.153  0.00  0.00    +0.021 A 
ATOM     10  C   UNL     1      -5.092  -0.960   1.253  0.00  0.00    +0.023 A 
ATOM     11  C   UNL     1      -4.240  -0.806   0.149  0.00  0.00    +0.067 A 
ATOM     12 CL   UNL     1      -4.068  -2.176  -0.938  0.00  0.00    -0.082 Cl
ENDBRANCH   2   5
ENDBRANCH   1   2
BRANCH   1  13
ATOM     13  C   UNL     1      -0.379   1.087   0.175  0.00  0.00    +0.186 C 
BRANCH  13  20
ATOM     14  N   UNL     1       3.609   2.767  -2.084  0.00  0.00    -0.327 N 
ATOM     15  C   UNL     1       3.019   2.093  -0.973  0.00  0.00    +0.217 A 
ATOM     16  N   UNL     1       3.802   1.589   0.015  0.00  0.00    -0.181 NA
ATOM     17  C   UNL     1       3.239   0.939   1.066  0.00  0.00    +0.217 A 
ATOM     18  N   UNL     1       4.065   0.391   2.090  0.00  0.00    -0.327 N 
ATOM     19  N   UNL     1       1.891   0.794   1.127  0.00  0.00    -0.198 NA
ATOM     20  C   UNL     1       1.104   1.294   0.140  0.00  0.00    +0.152 A 
ATOM     21  N   UNL     1       1.671   1.941  -0.911  0.00  0.00    -0.198 NA
ATOM     22  H   UNL     1       3.009   3.151  -2.847  0.00  0.00    +0.145 HD
ATOM     23  H   UNL     1       4.646   2.887  -2.145  0.00  0.00    +0.145 HD
ATOM     24  H   UNL     1       3.642  -0.143   2.882  0.00  0.00    +0.145 HD
ATOM     25  H   UNL     1       5.103   0.498   2.048  0.00  0.00    +0.145 HD
ENDBRANCH  13  20
ENDBRANCH   1  13
BRANCH   1  26
ATOM     26  C   UNL     1      -0.723  -1.168  -0.737  0.00  0.00    +0.145 C 
BRANCH  26  27
ATOM     27  C   UNL     1       0.710  -1.631  -0.675  0.00  0.00    -0.031 A 
ATOM     28  C   UNL     1       1.198  -2.293   0.465  0.00  0.00    +0.008 A 
ATOM     29  C   UNL     1       2.539  -2.686   0.531  0.00  0.00    +0.038 A 
ATOM     30  C   UNL     1       3.400  -2.428  -0.541  0.00  0.00    +0.123 A 
ATOM     31  F   UNL     1       4.702  -2.798  -0.470  0.00  0.00    -0.205 F 
ATOM     32  C   UNL     1       2.917  -1.785  -1.685  0.00  0.00    +0.038 A 
ATOM     33  C   UNL     1       1.576  -1.395  -1.758  0.00  0.00    +0.008 A 
ENDBRANCH  26  27
ENDBRANCH   1  26
TORSDOF 6
