REMARK  Name = 
REMARK  7 active torsions:
REMARK  status: ('A' for Active; 'I' for Inactive)
REMARK    1  A    between atoms: C_1  and  C_2
REMARK    2  A    between atoms: C_5  and  C_7
REMARK    3  A    between atoms: N_9  and  C_10
REMARK    4  A    between atoms: C_10  and  C_11
REMARK    5  A    between atoms: C_10  and  C_15
REMARK    6  A    between atoms: C_11  and  C_12
REMARK    7  A    between atoms: C_12  and  O_14
REMARK                            x       y       z     vdW  Elec       q    Type
REMARK                         _______ _______ _______ _____ _____    ______ ____
ROOT
ATOM      1  C   UNL     1      -1.292  -0.841  -0.522  0.00  0.00    +0.121 C 
ENDROOT
BRANCH   1   2
ATOM      2  C   UNL     1      -2.099   0.129   0.298  0.00  0.00    +0.011 A 
ATOM      3  C   UNL     1      -3.089  -0.209   1.213  0.00  0.00    +0.013 A 
ATOM      4  C   UNL     1      -3.705   0.904   1.796  0.00  0.00    +0.008 A 
ATOM      5  C   UNL     1      -3.212   2.119   1.339  0.00  0.00    +0.045 A 
ATOM      6  S   UNL     1      -2.008   1.808   0.206  0.00  0.00    -0.100 S 
ENDBRANCH   1   2
BRANCH   1   9
ATOM      7  C   UNL     1       0.908  -0.658   0.730  0.00  0.00    +0.280 C 
ATOM      8  O   UNL     1       0.390  -1.179   1.755  0.00  0.00    -0.267 OA
ATOM      9  N   UNL     1       0.127  -0.477  -0.461  0.00  0.00    -0.301 N 
ATOM     10  H   UNL     1       0.585  -0.055  -1.301  0.00  0.00    +0.150 HD
BRANCH   7  15
ATOM     11  C   UNL     1       5.207   1.181  -0.774  0.00  0.00    +0.086 C 
ATOM     12  C   UNL     1       4.178   0.567   0.114  0.00  0.00    +0.103 A 
ATOM     13  C   UNL     1       4.381   0.164   1.419  0.00  0.00    +0.045 A 
ATOM     14  C   UNL     1       3.175  -0.356   1.840  0.00  0.00    +0.055 A 
ATOM     15  C   UNL     1       2.317  -0.237   0.761  0.00  0.00    +0.189 A 
ATOM     16  O   UNL     1       2.943   0.314  -0.253  0.00  0.00    -0.455 OA
ENDBRANCH   7  15
ENDBRANCH   1   9
BRANCH   1  17
ATOM     17  C   UNL     1      -1.777  -0.858  -1.984  0.00  0.00    +0.148 C 
BRANCH  17  18
ATOM     18  C   UNL     1      -3.180  -1.371  -2.094  0.00  0.00    +0.307 C 
ATOM     19  O   UNL     1      -3.398  -2.612  -2.124  0.00  0.00    -0.251 OA
BRANCH  18  20
ATOM     20  O   UNL     1      -4.245  -0.476  -2.119  0.00  0.00    -0.481 OA
ATOM     21  H   UNL     1      -5.201  -0.808  -2.174  0.00  0.00    +0.295 HD
ENDBRANCH  18  20
ENDBRANCH  17  18
ENDBRANCH   1  17
TORSDOF 6
