REMARK  Name = 
REMARK  5 active torsions:
REMARK  status: ('A' for Active; 'I' for Inactive)
REMARK    1  A    between atoms: C_1  and  S_2
REMARK    2  A    between atoms: S_2  and  C_5
REMARK    3  A    between atoms: N_13  and  C_14
REMARK    4  A    between atoms: C_14  and  C_15
REMARK    5  A    between atoms: C_14  and  C_21
REMARK                            x       y       z     vdW  Elec       q    Type
REMARK                         _______ _______ _______ _____ _____    ______ ____
ROOT
ATOM      1  C   UNL     1       3.763   1.044   0.108  0.00  0.00    +0.089 A 
ATOM      2  C   UNL     1       4.547   0.076   0.746  0.00  0.00    +0.029 A 
ATOM      3  C   UNL     1       3.966  -1.103   1.213  0.00  0.00    +0.030 A 
ATOM      4  C   UNL     1       2.594  -1.324   1.052  0.00  0.00    +0.076 A 
ATOM      5  N   UNL     1       2.046  -2.487   1.487  0.00  0.00    -0.235 NA
ATOM      6  C   UNL     1       0.724  -2.737   1.332  0.00  0.00    +0.223 A 
ATOM      7  N   UNL     1      -0.078  -1.814   0.745  0.00  0.00    -0.220 NA
ATOM      8  C   UNL     1       0.402  -0.623   0.291  0.00  0.00    +0.130 A 
ATOM      9  N   UNL     1      -0.510   0.340  -0.281  0.00  0.00    -0.321 N 
ATOM     10  C   UNL     1       1.784  -0.349   0.424  0.00  0.00    +0.042 A 
ATOM     11  C   UNL     1       2.388   0.828  -0.064  0.00  0.00    +0.040 A 
ATOM     12  H   UNL     1      -0.295   1.356  -0.171  0.00  0.00    +0.148 HD
ENDROOT
BRANCH   1  14
ATOM     13  C   UNL     1       4.916   2.282  -2.233  0.00  0.00    +0.200 C 
ATOM     14  S   UNL     1       4.507   2.513  -0.518  0.00  0.00    -0.006 S 
ATOM     15  O   UNL     1       3.551   3.664  -0.378  0.00  0.00    -0.170 OA
ATOM     16  O   UNL     1       5.756   2.826   0.258  0.00  0.00    -0.170 OA
ENDBRANCH   1  14
BRANCH   9  17
ATOM     17  C   UNL     1      -1.828   0.032  -0.858  0.00  0.00    +0.107 C 
BRANCH  17  18
ATOM     18  C   UNL     1      -2.933   0.368   0.135  0.00  0.00    -0.009 A 
ATOM     19  C   UNL     1      -4.065   1.086  -0.288  0.00  0.00    +0.008 A 
ATOM     20  C   UNL     1      -5.087   1.386   0.613  0.00  0.00    +0.020 A 
ATOM     21  C   UNL     1      -4.974   0.966   1.938  0.00  0.00    +0.111 A 
ATOM     22  N   UNL     1      -3.877   0.273   2.340  0.00  0.00    -0.263 NA
ATOM     23  C   UNL     1      -2.867  -0.032   1.482  0.00  0.00    +0.116 A 
ENDBRANCH  17  18
BRANCH  17  24
ATOM     24  C   UNL     1      -1.873  -1.396  -1.471  0.00  0.00    +0.014 C 
ATOM     25  C   UNL     1      -2.881  -2.426  -0.966  0.00  0.00    +0.006 C 
ATOM     26  C   UNL     1      -3.129  -1.702  -2.278  0.00  0.00    +0.006 C 
ENDBRANCH  17  24
ENDBRANCH   9  17
TORSDOF 4
