REMARK  Name = 
REMARK  6 active torsions:
REMARK  status: ('A' for Active; 'I' for Inactive)
REMARK    1  A    between atoms: C_2  and  C_3
REMARK    2  A    between atoms: C_6  and  S_10
REMARK    3  A    between atoms: S_10  and  N_13
REMARK    4  A    between atoms: N_13  and  C_14
REMARK    5  A    between atoms: C_14  and  C_15
REMARK    6  A    between atoms: C_15  and  C_16
REMARK                            x       y       z     vdW  Elec       q    Type
REMARK                         _______ _______ _______ _____ _____    ______ ____
ROOT
ATOM      1  S   UNL     1       1.931   2.221   0.235  0.00  0.00    +0.058 S 
ATOM      2  O   UNL     1       2.738   3.340  -0.360  0.00  0.00    -0.153 OA
ATOM      3  O   UNL     1       2.086   2.263   1.731  0.00  0.00    -0.153 OA
ENDROOT
BRANCH   1   7
ATOM      4  C   UNL     1       3.427  -1.763  -1.431  0.00  0.00    +0.070 A 
ATOM      5  C   UNL     1       3.234  -1.607  -0.052  0.00  0.00    +0.022 A 
ATOM      6  C   UNL     1       2.784  -0.388   0.463  0.00  0.00    +0.030 A 
ATOM      7  C   UNL     1       2.527   0.688  -0.397  0.00  0.00    +0.107 A 
ATOM      8  C   UNL     1       2.713   0.532  -1.776  0.00  0.00    +0.049 A 
ATOM      9  C   UNL     1       3.164  -0.687  -2.298  0.00  0.00    +0.060 A 
ATOM     10 CL   UNL     1       3.384  -0.835  -4.038  0.00  0.00    -0.082 Cl
BRANCH   4  12
ATOM     11  N   UNL     1       4.261  -4.048  -2.346  0.00  0.00    -0.191 NA
ATOM     12  C   UNL     1       3.890  -3.031  -1.939  0.00  0.00    +0.101 C 
ENDBRANCH   4  12
ENDBRANCH   1   7
BRANCH   1  13
ATOM     13  N   UNL     1       0.259   2.429  -0.190  0.00  0.00    -0.190 NA
ATOM     14  H   UNL     1      -0.036   3.353   0.201  0.00  0.00    +0.148 HD
BRANCH  13  15
ATOM     15  C   UNL     1      -0.546   1.385   0.448  0.00  0.00    +0.112 C 
BRANCH  15  16
ATOM     16  C   UNL     1      -2.003   1.504  -0.001  0.00  0.00    +0.072 C 
BRANCH  16  17
ATOM     17  C   UNL     1      -2.837   0.422   0.620  0.00  0.00    +0.043 A 
ATOM     18  C   UNL     1      -2.924  -0.846   0.024  0.00  0.00    +0.023 A 
ATOM     19  C   UNL     1      -3.680  -1.843   0.644  0.00  0.00    +0.003 A 
ATOM     20  C   UNL     1      -4.332  -1.573   1.849  0.00  0.00    +0.020 A 
ATOM     21  C   UNL     1      -4.214  -0.303   2.420  0.00  0.00    +0.111 A 
ATOM     22  N   UNL     1      -3.473   0.655   1.802  0.00  0.00    -0.260 NA
ENDBRANCH  16  17
ENDBRANCH  15  16
ENDBRANCH  13  15
ENDBRANCH   1  13
TORSDOF 6
