REMARK  Name = 
REMARK  7 active torsions:
REMARK  status: ('A' for Active; 'I' for Inactive)
REMARK    1  A    between atoms: C_1  and  S_2
REMARK    2  A    between atoms: S_2  and  C_5
REMARK    3  A    between atoms: C_10  and  C_11
REMARK    4  A    between atoms: N_13  and  C_14
REMARK    5  A    between atoms: C_18  and  O_20
REMARK    6  A    between atoms: O_20  and  C_21
REMARK    7  A    between atoms: C_21  and  C_22
REMARK                            x       y       z     vdW  Elec       q    Type
REMARK                         _______ _______ _______ _____ _____    ______ ____
ROOT
ATOM      1  C   UNL     1      -3.122  -1.492  -0.454  0.00  0.00    +0.250 C 
ATOM      2  O   UNL     1      -3.030  -2.462  -1.254  0.00  0.00    -0.270 OA
ATOM      3  N   UNL     1      -1.949  -0.953   0.172  0.00  0.00    -0.281 N 
ATOM      4  H   UNL     1      -2.075  -0.492   1.102  0.00  0.00    +0.155 HD
ENDROOT
BRANCH   1  10
ATOM      5  C   UNL     1      -4.821   0.375  -0.184  0.00  0.00    +0.100 A 
ATOM      6  C   UNL     1      -6.087   0.783   0.268  0.00  0.00    +0.028 A 
ATOM      7  C   UNL     1      -6.990  -0.144   0.792  0.00  0.00    +0.002 A 
ATOM      8  C   UNL     1      -6.643  -1.492   0.866  0.00  0.00    +0.001 A 
ATOM      9  C   UNL     1      -5.386  -1.915   0.434  0.00  0.00    +0.015 A 
ATOM     10  C   UNL     1      -4.456  -0.992  -0.075  0.00  0.00    +0.062 A 
BRANCH   5  12
ATOM     11  C   UNL     1      -2.848   2.474   0.295  0.00  0.00    +0.200 C 
ATOM     12  S   UNL     1      -3.783   1.599  -0.941  0.00  0.00    -0.005 S 
ATOM     13  O   UNL     1      -4.649   2.586  -1.674  0.00  0.00    -0.170 OA
ATOM     14  O   UNL     1      -2.849   0.973  -1.937  0.00  0.00    -0.170 OA
ENDBRANCH   5  12
ENDBRANCH   1  10
BRANCH   3  15
ATOM     15  C   UNL     1      -0.610  -1.120  -0.327  0.00  0.00    +0.037 A 
ATOM     16  C   UNL     1      -0.350  -1.274  -1.701  0.00  0.00    +0.023 A 
ATOM     17  C   UNL     1       0.962  -1.408  -2.158  0.00  0.00    +0.005 A 
ATOM     18  C   UNL     1       2.029  -1.377  -1.257  0.00  0.00    +0.046 A 
ATOM     19  C   UNL     1       1.788  -1.197   0.119  0.00  0.00    +0.122 A 
ATOM     20  C   UNL     1       0.468  -1.068   0.569  0.00  0.00    +0.069 A 
BRANCH  19  21
ATOM     21  O   UNL     1       2.819  -1.147   1.072  0.00  0.00    -0.489 OA
BRANCH  21  22
ATOM     22  C   UNL     1       4.218  -1.146   0.783  0.00  0.00    +0.260 C 
BRANCH  22  23
ATOM     23  C   UNL     1       4.664   0.225   0.258  0.00  0.00    +0.156 C 
ATOM     24  C   UNL     1       6.141   0.237  -0.101  0.00  0.00    +0.037 C 
ATOM     25  C   UNL     1       6.527   1.657   0.167  0.00  0.00    +0.031 C 
ATOM     26  C   UNL     1       5.538   2.087   1.234  0.00  0.00    +0.160 C 
ATOM     27  O   UNL     1       4.428   1.216   1.233  0.00  0.00    -0.373 OA
ENDBRANCH  22  23
ENDBRANCH  21  22
ENDBRANCH  19  21
ENDBRANCH   3  15
TORSDOF 6
