REMARK  Name = 
REMARK  6 active torsions:
REMARK  status: ('A' for Active; 'I' for Inactive)
REMARK    1  A    between atoms: C_1  and  C_2
REMARK    2  A    between atoms: C_5  and  N_6
REMARK    3  A    between atoms: N_6  and  S_7
REMARK    4  A    between atoms: S_7  and  C_10
REMARK    5  A    between atoms: C_20  and  C_22
REMARK    6  A    between atoms: C_22  and  O_24
REMARK                            x       y       z     vdW  Elec       q    Type
REMARK                         _______ _______ _______ _____ _____    ______ ____
ROOT
ATOM      1  S   UNL     1      -0.271  -2.037  -1.916  0.00  0.00    +0.072 S 
ATOM      2  O   UNL     1       0.131  -1.595  -3.296  0.00  0.00    -0.150 OA
ATOM      3  O   UNL     1      -0.898  -3.399  -2.000  0.00  0.00    -0.150 OA
ENDROOT
BRANCH   1   4
ATOM      4  C   UNL     1      -1.439  -0.920  -1.218  0.00  0.00    +0.112 A 
ATOM      5  C   UNL     1      -1.876  -1.114   0.117  0.00  0.00    +0.031 A 
ATOM      6  C   UNL     1      -2.784  -0.219   0.713  0.00  0.00    +0.031 A 
ATOM      7  C   UNL     1      -3.229   0.852  -0.057  0.00  0.00    +0.087 A 
ATOM      8  N   UNL     1      -4.082   1.830   0.282  0.00  0.00    -0.288 N 
ATOM      9  C   UNL     1      -4.139   2.583  -0.842  0.00  0.00    +0.419 A 
ATOM     10  O   UNL     1      -4.844   3.621  -0.942  0.00  0.00    -0.223 OA
ATOM     11  O   UNL     1      -3.381   2.122  -1.823  0.00  0.00    -0.408 OA
ATOM     12  C   UNL     1      -2.811   1.043  -1.343  0.00  0.00    +0.159 A 
ATOM     13  C   UNL     1      -1.915   0.180  -1.965  0.00  0.00    +0.077 A 
ATOM     14  H   UNL     1      -4.578   1.975   1.190  0.00  0.00    +0.172 HD
ENDBRANCH   1   4
BRANCH   1  15
ATOM     15  N   UNL     1       1.136  -2.110  -0.906  0.00  0.00    -0.215 N 
ATOM     16  H   UNL     1       1.594  -3.039  -0.776  0.00  0.00    +0.174 HD
BRANCH  15  21
ATOM     17  C   UNL     1       3.247   2.486   1.837  0.00  0.00    +0.044 C 
ATOM     18  C   UNL     1       2.708   1.280   1.125  0.00  0.00    -0.050 A 
ATOM     19  C   UNL     1       2.181   1.402  -0.165  0.00  0.00    +0.005 A 
ATOM     20  C   UNL     1       1.652   0.288  -0.817  0.00  0.00    +0.025 A 
ATOM     21  C   UNL     1       1.618  -0.966  -0.183  0.00  0.00    +0.062 A 
ATOM     22  C   UNL     1       2.112  -1.090   1.139  0.00  0.00    +0.081 A 
ATOM     23  C   UNL     1       2.660   0.040   1.775  0.00  0.00    +0.020 A 
BRANCH  22  24
ATOM     24  C   UNL     1       2.016  -2.359   1.899  0.00  0.00    +0.339 C 
ATOM     25  O   UNL     1       2.831  -2.602   2.829  0.00  0.00    -0.245 OA
BRANCH  24  26
ATOM     26  O   UNL     1       1.003  -3.275   1.627  0.00  0.00    -0.477 OA
ATOM     27  H   UNL     1       0.925  -4.137   2.153  0.00  0.00    +0.295 HD
ENDBRANCH  24  26
ENDBRANCH  22  24
ENDBRANCH  15  21
ENDBRANCH   1  15
TORSDOF 5
