REMARK  Name = 
REMARK  7 active torsions:
REMARK  status: ('A' for Active; 'I' for Inactive)
REMARK    1  A    between atoms: C_1  and  C_2
REMARK    2  A    between atoms: C_3  and  N_11
REMARK    3  A    between atoms: N_11  and  S_12
REMARK    4  A    between atoms: S_12  and  C_15
REMARK    5  A    between atoms: N_18  and  C_20
REMARK    6  A    between atoms: C_20  and  C_21
REMARK    7  A    between atoms: C_20  and  C_22
REMARK                            x       y       z     vdW  Elec       q    Type
REMARK                         _______ _______ _______ _____ _____    ______ ____
ROOT
ATOM      1  N   UNL     1      -1.099  -2.394  -1.336  0.00  0.00    -0.214 N 
ATOM      2  H   UNL     1      -1.444  -2.591  -2.301  0.00  0.00    +0.174 HD
ENDROOT
BRANCH   1   5
ATOM      3  C   UNL     1      -2.136  -0.040  -2.763  0.00  0.00    +0.046 C 
ATOM      4  C   UNL     1      -2.146  -0.142  -1.261  0.00  0.00    -0.016 A 
ATOM      5  C   UNL     1      -1.637  -1.288  -0.591  0.00  0.00    +0.070 A 
ATOM      6  C   UNL     1      -1.656  -1.327   0.828  0.00  0.00    +0.137 A 
ATOM      7  N   UNL     1      -2.154  -0.284   1.553  0.00  0.00    -0.236 NA
ATOM      8  C   UNL     1      -2.640   0.799   0.903  0.00  0.00    +0.138 A 
ATOM      9  N   UNL     1      -3.164   1.890   1.480  0.00  0.00    -0.346 N 
ATOM     10  C   UNL     1      -3.524   2.700   0.459  0.00  0.00    +0.085 A 
ATOM     11  C   UNL     1      -3.223   2.113  -0.767  0.00  0.00    +0.029 A 
ATOM     12  C   UNL     1      -2.654   0.890  -0.460  0.00  0.00    +0.023 A 
ATOM     13  H   UNL     1      -3.274   2.076   2.501  0.00  0.00    +0.167 HD
ENDBRANCH   1   5
BRANCH   1  14
ATOM     14  S   UNL     1       0.303  -3.266  -0.803  0.00  0.00    +0.075 S 
ATOM     15  O   UNL     1      -0.117  -4.353   0.146  0.00  0.00    -0.150 OA
ATOM     16  O   UNL     1       0.994  -3.880  -1.988  0.00  0.00    -0.150 OA
BRANCH  14  17
ATOM     17  C   UNL     1       1.410  -2.163  -0.009  0.00  0.00    +0.146 A 
ATOM     18  C   UNL     1       2.033  -2.338   1.209  0.00  0.00    +0.163 A 
ATOM     19  N   UNL     1       2.666  -1.196   1.543  0.00  0.00    -0.177 NA
ATOM     20  N   UNL     1       2.470  -0.323   0.563  0.00  0.00    -0.267 N 
ATOM     21  C   UNL     1       1.696  -0.874  -0.392  0.00  0.00    +0.137 A 
BRANCH  20  22
ATOM     22  C   UNL     1       2.886   1.080   0.610  0.00  0.00    +0.101 C 
ATOM     23  C   UNL     1       4.321   1.201   1.132  0.00  0.00    +0.032 C 
ATOM     24  C   UNL     1       1.915   1.879   1.481  0.00  0.00    +0.032 C 
ENDBRANCH  20  22
ENDBRANCH  14  17
ENDBRANCH   1  14
TORSDOF 4
