REMARK  Name = 
REMARK  8 active torsions:
REMARK  status: ('A' for Active; 'I' for Inactive)
REMARK    1  A    between atoms: C_1  and  O_2
REMARK    2  A    between atoms: O_2  and  C_3
REMARK    3  A    between atoms: C_9  and  C_10
REMARK    4  A    between atoms: N_12  and  C_13
REMARK    5  A    between atoms: C_13  and  C_14
REMARK    6  A    between atoms: C_14  and  C_15
REMARK    7  A    between atoms: C_15  and  C_16
REMARK    8  A    between atoms: C_16  and  O_18
REMARK                            x       y       z     vdW  Elec       q    Type
REMARK                         _______ _______ _______ _____ _____    ______ ____
ROOT
ATOM      1  C   UNL     1       0.029  -0.196   0.795  0.00  0.00    +0.248 C 
ATOM      2  O   UNL     1       0.716  -0.280   1.848  0.00  0.00    -0.270 OA
ATOM      3  N   UNL     1       0.552  -0.694  -0.447  0.00  0.00    -0.311 N 
ATOM      4  H   UNL     1       0.058  -0.459  -1.338  0.00  0.00    +0.149 HD
ENDROOT
BRANCH   1  11
ATOM      5  C   UNL     1      -2.398  -0.036   0.115  0.00  0.00    +0.133 A 
ATOM      6  C   UNL     1      -3.634   0.639   0.185  0.00  0.00    +0.061 A 
ATOM      7  C   UNL     1      -3.778   1.774   0.988  0.00  0.00    +0.021 A 
ATOM      8 BR   UNL     1      -5.460   2.674   1.077  0.00  0.00    -0.050 Br
ATOM      9  C   UNL     1      -2.696   2.244   1.732  0.00  0.00    +0.016 A 
ATOM     10  C   UNL     1      -1.465   1.591   1.667  0.00  0.00    +0.018 A 
ATOM     11  C   UNL     1      -1.297   0.461   0.849  0.00  0.00    +0.078 A 
BRANCH   5  13
ATOM     12  C   UNL     1      -3.271  -1.807  -1.429  0.00  0.00    +0.277 C 
ATOM     13  O   UNL     1      -2.244  -1.207  -0.646  0.00  0.00    -0.494 OA
ENDBRANCH   5  13
ENDBRANCH   1  11
BRANCH   3  14
ATOM     14  C   UNL     1       1.817  -1.423  -0.546  0.00  0.00    +0.105 C 
BRANCH  14  15
ATOM     15  C   UNL     1       2.865  -0.595  -1.302  0.00  0.00    +0.030 C 
BRANCH  15  16
ATOM     16  C   UNL     1       3.301   0.667  -0.543  0.00  0.00    +0.122 C 
BRANCH  16  17
ATOM     17  C   UNL     1       4.107   0.331   0.675  0.00  0.00    +0.305 C 
ATOM     18  O   UNL     1       3.625   0.517   1.824  0.00  0.00    -0.251 OA
BRANCH  17  19
ATOM     19  O   UNL     1       5.387  -0.197   0.535  0.00  0.00    -0.481 OA
ATOM     20  H   UNL     1       5.942  -0.434   1.348  0.00  0.00    +0.295 HD
ENDBRANCH  17  19
ENDBRANCH  16  17
ENDBRANCH  15  16
ENDBRANCH  14  15
ENDBRANCH   3  14
TORSDOF 7
