REMARK  Name = 
REMARK  9 active torsions:
REMARK  status: ('A' for Active; 'I' for Inactive)
REMARK    1  A    between atoms: C_1  and  O_2
REMARK    2  A    between atoms: O_2  and  C_3
REMARK    3  A    between atoms: C_5  and  C_6
REMARK    4  A    between atoms: C_11  and  O_12
REMARK    5  A    between atoms: O_12  and  C_13
REMARK    6  A    between atoms: C_13  and  C_14
REMARK    7  A    between atoms: C_18  and  O_20
REMARK    8  A    between atoms: O_20  and  C_21
REMARK    9  A    between atoms: C_21  and  C_22
REMARK                            x       y       z     vdW  Elec       q    Type
REMARK                         _______ _______ _______ _____ _____    ______ ____
ROOT
ATOM      1  C   UNL     1      -0.780  -2.143   1.660  0.00  0.00    +0.265 C 
ENDROOT
BRANCH   1   2
ATOM      2  C   UNL     1      -0.008  -0.850   1.728  0.00  0.00    -0.007 A 
ATOM      3  C   UNL     1      -0.375   0.145   2.646  0.00  0.00    +0.007 A 
ATOM      4  C   UNL     1       0.352   1.335   2.722  0.00  0.00    +0.004 A 
ATOM      5  C   UNL     1       1.461   1.536   1.896  0.00  0.00    +0.045 A 
ATOM      6  C   UNL     1       1.856   0.537   0.986  0.00  0.00    +0.122 A 
ATOM      7  C   UNL     1       1.123  -0.654   0.916  0.00  0.00    +0.052 A 
BRANCH   6   8
ATOM      8  O   UNL     1       2.964   0.686   0.139  0.00  0.00    -0.483 OA
BRANCH   8   9
ATOM      9  C   UNL     1       3.789   1.846   0.090  0.00  0.00    +0.324 C 
BRANCH   9  10
ATOM     10  C   UNL     1       4.855   1.646  -0.939  0.00  0.00    +0.248 C 
ATOM     11  N   UNL     1       6.043   0.924  -0.616  0.00  0.00    -0.327 N 
ATOM     12  O   UNL     1       4.686   2.080  -2.109  0.00  0.00    -0.272 OA
ATOM     13  H   UNL     1       6.781   0.774  -1.339  0.00  0.00    +0.145 HD
ATOM     14  H   UNL     1       6.184   0.531   0.341  0.00  0.00    +0.145 HD
ENDBRANCH   9  10
ENDBRANCH   8   9
ENDBRANCH   6   8
ENDBRANCH   1   2
BRANCH   1  15
ATOM     15  O   UNL     1      -0.971  -2.568   0.309  0.00  0.00    -0.482 OA
BRANCH  15  22
ATOM     16  C   UNL     1      -2.562  -0.815  -0.482  0.00  0.00    +0.164 A 
ATOM     17  C   UNL     1      -3.176  -0.181  -1.582  0.00  0.00    +0.068 A 
ATOM     18  C   UNL     1      -2.918  -0.609  -2.887  0.00  0.00    +0.057 A 
ATOM     19  C   UNL     1      -2.047  -1.675  -3.110  0.00  0.00    +0.042 A 
ATOM     20  C   UNL     1      -1.424  -2.310  -2.034  0.00  0.00    +0.087 A 
ATOM     21 CL   UNL     1      -0.322  -3.642  -2.355  0.00  0.00    -0.080 Cl
ATOM     22  C   UNL     1      -1.659  -1.885  -0.715  0.00  0.00    +0.181 A 
BRANCH  16  24
ATOM     23  C   UNL     1      -3.692   0.679   1.186  0.00  0.00    +0.277 C 
ATOM     24  O   UNL     1      -2.849  -0.412   0.831  0.00  0.00    -0.491 OA
ENDBRANCH  16  24
BRANCH  18  25
ATOM     25  C   UNL     1      -3.556   0.044  -4.001  0.00  0.00    +0.099 C 
ATOM     26  N   UNL     1      -4.069   0.569  -4.896  0.00  0.00    -0.191 NA
ENDBRANCH  18  25
ENDBRANCH  15  22
ENDBRANCH   1  15
TORSDOF 8
