REMARK  Name = 
REMARK  11 active torsions:
REMARK  status: ('A' for Active; 'I' for Inactive)
REMARK    1  A    between atoms: C_1  and  C_2
REMARK    2  A    between atoms: C_2  and  O_3
REMARK    3  A    between atoms: O_3  and  C_4
REMARK    4  A    between atoms: C_7  and  O_10
REMARK    5  A    between atoms: O_10  and  C_11
REMARK    6  A    between atoms: C_11  and  C_12
REMARK    7  A    between atoms: N_14  and  C_15
REMARK    8  A    between atoms: C_15  and  C_16
REMARK    9  A    between atoms: C_15  and  C_20
REMARK   10  A    between atoms: C_16  and  C_17
REMARK   11  A    between atoms: C_17  and  O_19
REMARK                            x       y       z     vdW  Elec       q    Type
REMARK                         _______ _______ _______ _____ _____    ______ ____
ROOT
ATOM      1  C   UNL     1      -1.273  -0.489  -1.812  0.00  0.00    +0.251 C 
ATOM      2  O   UNL     1      -1.632  -1.613  -2.255  0.00  0.00    -0.272 OA
ATOM      3  N   UNL     1      -2.253   0.489  -1.432  0.00  0.00    -0.305 N 
ATOM      4  H   UNL     1      -1.918   1.416  -1.084  0.00  0.00    +0.149 HD
ENDROOT
BRANCH   1   5
ATOM      5  C   UNL     1       0.181  -0.196  -1.635  0.00  0.00    +0.324 C 
BRANCH   5   6
ATOM      6  O   UNL     1       0.521  -0.345  -0.260  0.00  0.00    -0.483 OA
BRANCH   6  10
ATOM      7  C   UNL     1       4.346   0.255   1.425  0.00  0.00    +0.121 A 
ATOM      8  C   UNL     1       3.255  -0.127   2.214  0.00  0.00    +0.049 A 
ATOM      9  C   UNL     1       1.995  -0.321   1.641  0.00  0.00    +0.049 A 
ATOM     10  C   UNL     1       1.803  -0.135   0.268  0.00  0.00    +0.121 A 
ATOM     11  C   UNL     1       2.895   0.253  -0.531  0.00  0.00    +0.049 A 
ATOM     12  C   UNL     1       4.156   0.448   0.043  0.00  0.00    +0.049 A 
BRANCH   7  13
ATOM     13  O   UNL     1       5.587   0.438   2.057  0.00  0.00    -0.492 OA
BRANCH  13  15
ATOM     14  C   UNL     1       7.377  -0.530   0.726  0.00  0.00    +0.048 C 
ATOM     15  C   UNL     1       6.821   0.722   1.397  0.00  0.00    +0.225 C 
ENDBRANCH  13  15
ENDBRANCH   7  13
ENDBRANCH   6  10
ENDBRANCH   5   6
ENDBRANCH   1   5
BRANCH   3  16
ATOM     16  C   UNL     1      -3.691   0.208  -1.475  0.00  0.00    +0.120 C 
BRANCH  16  17
ATOM     17  C   UNL     1      -4.051  -0.756  -0.376  0.00  0.00    +0.010 A 
ATOM     18  C   UNL     1      -3.725  -0.627   0.970  0.00  0.00    +0.013 A 
ATOM     19  C   UNL     1      -4.231  -1.665   1.761  0.00  0.00    +0.008 A 
ATOM     20  C   UNL     1      -4.959  -2.608   1.046  0.00  0.00    +0.045 A 
ATOM     21  S   UNL     1      -4.973  -2.148  -0.572  0.00  0.00    -0.100 S 
ENDBRANCH  16  17
BRANCH  16  22
ATOM     22  C   UNL     1      -4.494   1.515  -1.345  0.00  0.00    +0.148 C 
BRANCH  22  23
ATOM     23  C   UNL     1      -5.963   1.281  -1.526  0.00  0.00    +0.307 C 
ATOM     24  O   UNL     1      -6.453   1.207  -2.684  0.00  0.00    -0.251 OA
BRANCH  23  25
ATOM     25  O   UNL     1      -6.779   1.103  -0.413  0.00  0.00    -0.481 OA
ATOM     26  H   UNL     1      -7.772   0.928  -0.519  0.00  0.00    +0.295 HD
ENDBRANCH  23  25
ENDBRANCH  22  23
ENDBRANCH  16  22
ENDBRANCH   3  16
TORSDOF 10
