REMARK  Name = 
REMARK  8 active torsions:
REMARK  status: ('A' for Active; 'I' for Inactive)
REMARK    1  A    between atoms: C_1  and  O_2
REMARK    2  A    between atoms: O_2  and  C_3
REMARK    3  A    between atoms: C_6  and  S_9
REMARK    4  A    between atoms: S_9  and  N_12
REMARK    5  A    between atoms: N_12  and  C_13
REMARK    6  A    between atoms: C_13  and  C_14
REMARK    7  A    between atoms: C_14  and  C_15
REMARK    8  A    between atoms: C_18  and  C_21
REMARK                            x       y       z     vdW  Elec       q    Type
REMARK                         _______ _______ _______ _____ _____    ______ ____
ROOT
ATOM      1  N   UNL     1      -0.295  -2.125   1.659  0.00  0.00    -0.190 NA
ATOM      2  H   UNL     1      -0.357  -1.102   1.869  0.00  0.00    +0.148 HD
ENDROOT
BRANCH   1   3
ATOM      3  S   UNL     1       1.398  -2.513   1.633  0.00  0.00    +0.058 S 
ATOM      4  O   UNL     1       1.575  -3.970   1.308  0.00  0.00    -0.153 OA
ATOM      5  O   UNL     1       1.988  -2.250   2.990  0.00  0.00    -0.153 OA
BRANCH   3   9
ATOM      6  C   UNL     1       3.504   0.110  -1.470  0.00  0.00    +0.120 A 
ATOM      7  C   UNL     1       2.955   0.679  -0.305  0.00  0.00    +0.047 A 
ATOM      8  C   UNL     1       2.322  -0.130   0.643  0.00  0.00    +0.032 A 
ATOM      9  C   UNL     1       2.230  -1.513   0.444  0.00  0.00    +0.105 A 
ATOM     10  C   UNL     1       2.771  -2.081  -0.717  0.00  0.00    +0.032 A 
ATOM     11  C   UNL     1       3.406  -1.273  -1.665  0.00  0.00    +0.047 A 
BRANCH   6  13
ATOM     12  C   UNL     1       4.309   2.291  -2.389  0.00  0.00    +0.277 C 
ATOM     13  O   UNL     1       4.150   0.877  -2.450  0.00  0.00    -0.495 OA
ENDBRANCH   6  13
ENDBRANCH   3   9
ENDBRANCH   1   3
BRANCH   1  14
ATOM     14  C   UNL     1      -0.876  -2.361   0.334  0.00  0.00    +0.110 C 
BRANCH  14  15
ATOM     15  C   UNL     1      -2.390  -2.125   0.353  0.00  0.00    +0.052 C 
BRANCH  15  16
ATOM     16  C   UNL     1      -2.725  -0.666   0.530  0.00  0.00    -0.046 A 
ATOM     17  C   UNL     1      -3.077  -0.165   1.793  0.00  0.00    +0.004 A 
ATOM     18  C   UNL     1      -3.358   1.194   1.960  0.00  0.00    +0.012 A 
ATOM     19  C   UNL     1      -3.306   2.073   0.863  0.00  0.00    +0.055 A 
ATOM     20  C   UNL     1      -2.920   1.573  -0.392  0.00  0.00    +0.012 A 
ATOM     21  C   UNL     1      -2.637   0.215  -0.558  0.00  0.00    +0.004 A 
BRANCH  19  22
ATOM     22  C   UNL     1      -3.562   3.547   1.050  0.00  0.00    +0.417 C 
ATOM     23  F   UNL     1      -4.440   3.765   2.096  0.00  0.00    -0.166 F 
ATOM     24  F   UNL     1      -4.111   4.094  -0.097  0.00  0.00    -0.166 F 
ATOM     25  F   UNL     1      -2.366   4.185   1.325  0.00  0.00    -0.166 F 
ENDBRANCH  19  22
ENDBRANCH  15  16
ENDBRANCH  14  15
ENDBRANCH   1  14
TORSDOF 7
