REMARK  Name = 
REMARK  7 active torsions:
REMARK  status: ('A' for Active; 'I' for Inactive)
REMARK    1  A    between atoms: S_2  and  N_4
REMARK    2  A    between atoms: S_2  and  C_9
REMARK    3  A    between atoms: N_4  and  C_5
REMARK    4  A    between atoms: C_5  and  C_6
REMARK    5  A    between atoms: C_12  and  S_15
REMARK    6  A    between atoms: S_15  and  N_18
REMARK    7  A    between atoms: N_18  and  C_19
REMARK                            x       y       z     vdW  Elec       q    Type
REMARK                         _______ _______ _______ _____ _____    ______ ____
ROOT
ATOM      1  C   UNL     1       1.131  -1.966  -1.103  0.00  0.00    +0.105 A 
ATOM      2  C   UNL     1       0.099  -1.480  -1.914  0.00  0.00    +0.030 A 
ATOM      3  C   UNL     1      -1.233  -1.738  -1.585  0.00  0.00    +0.031 A 
ATOM      4  C   UNL     1      -1.544  -2.479  -0.438  0.00  0.00    +0.109 A 
ATOM      5  C   UNL     1      -0.511  -3.006   0.349  0.00  0.00    +0.031 A 
ATOM      6  C   UNL     1       0.823  -2.747   0.020  0.00  0.00    +0.030 A 
ENDROOT
BRANCH   1   8
ATOM      7  O   UNL     1       3.103  -1.632  -2.863  0.00  0.00    -0.153 OA
ATOM      8  S   UNL     1       2.787  -1.450  -1.406  0.00  0.00    +0.058 S 
ATOM      9  O   UNL     1       3.750  -2.276  -0.599  0.00  0.00    -0.153 OA
BRANCH   8  10
ATOM     10  N   UNL     1       2.958   0.228  -0.981  0.00  0.00    -0.190 NA
ATOM     11  H   UNL     1       2.299   0.747  -1.606  0.00  0.00    +0.148 HD
BRANCH  10  12
ATOM     12  C   UNL     1       2.524   0.433   0.406  0.00  0.00    +0.109 C 
BRANCH  12  13
ATOM     13  C   UNL     1       2.826   1.850   0.936  0.00  0.00    +0.005 C 
ATOM     14  C   UNL     1       1.878   2.915   0.397  0.00  0.00    +0.005 C 
ATOM     15  C   UNL     1       3.342   2.937  -0.004  0.00  0.00    +0.005 C 
ENDBRANCH  12  13
ENDBRANCH  10  12
ENDBRANCH   8  10
ENDBRANCH   1   8
BRANCH   4  16
ATOM     16  S   UNL     1      -3.221  -2.598   0.084  0.00  0.00    +0.073 S 
ATOM     17  O   UNL     1      -3.971  -3.469  -0.885  0.00  0.00    -0.150 OA
ATOM     18  O   UNL     1      -3.314  -3.198   1.459  0.00  0.00    -0.150 OA
BRANCH  16  19
ATOM     19  N   UNL     1      -3.927  -1.012   0.106  0.00  0.00    -0.199 N 
ATOM     20  H   UNL     1      -4.839  -0.886  -0.387  0.00  0.00    +0.175 HD
BRANCH  19  21
ATOM     21  C   UNL     1      -3.201   0.160   0.510  0.00  0.00    +0.138 A 
ATOM     22  C   UNL     1      -2.124   0.087   1.411  0.00  0.00    +0.045 A 
ATOM     23  C   UNL     1      -1.421   1.249   1.736  0.00  0.00    +0.005 A 
ATOM     24  C   UNL     1      -1.805   2.471   1.185  0.00  0.00    +0.020 A 
ATOM     25  C   UNL     1      -2.897   2.514   0.316  0.00  0.00    +0.113 A 
ATOM     26  N   UNL     1      -3.563   1.370   0.001  0.00  0.00    -0.239 NA
ENDBRANCH  19  21
ENDBRANCH  16  19
ENDBRANCH   4  16
TORSDOF 7
