REMARK  Name = 
REMARK  8 active torsions:
REMARK  status: ('A' for Active; 'I' for Inactive)
REMARK    1  A    between atoms: C_1  and  O_2
REMARK    2  A    between atoms: O_2  and  C_3
REMARK    3  A    between atoms: C_8  and  N_9
REMARK    4  A    between atoms: N_9  and  S_10
REMARK    5  A    between atoms: S_10  and  C_13
REMARK    6  A    between atoms: C_16  and  N_19
REMARK    7  A    between atoms: C_20  and  C_22
REMARK    8  A    between atoms: C_26  and  C_27
REMARK                            x       y       z     vdW  Elec       q    Type
REMARK                         _______ _______ _______ _____ _____    ______ ____
ROOT
ATOM      1  C   UNL     1      -0.755   2.327  -0.080  0.00  0.00    +0.109 A 
ATOM      2  C   UNL     1      -0.848   1.376   0.944  0.00  0.00    +0.030 A 
ATOM      3  C   UNL     1       0.209   0.494   1.183  0.00  0.00    +0.025 A 
ATOM      4  C   UNL     1       1.381   0.563   0.416  0.00  0.00    +0.034 A 
ATOM      5  C   UNL     1       1.463   1.507  -0.624  0.00  0.00    +0.025 A 
ATOM      6  C   UNL     1       0.405   2.388  -0.863  0.00  0.00    +0.030 A 
ENDROOT
BRANCH   4   7
ATOM      7  N   UNL     1       2.442  -0.374   0.666  0.00  0.00    -0.282 N 
ATOM      8  C   UNL     1       3.841  -0.044   0.577  0.00  0.00    +0.248 C 
ATOM      9  O   UNL     1       4.194   1.147   0.356  0.00  0.00    -0.270 OA
ATOM     10  H   UNL     1       2.162  -1.331   0.975  0.00  0.00    +0.155 HD
BRANCH   8  11
ATOM     11  C   UNL     1       4.888  -1.081   0.747  0.00  0.00    +0.038 A 
ATOM     12  C   UNL     1       6.121  -0.939   0.084  0.00  0.00    +0.013 A 
ATOM     13  C   UNL     1       7.122  -1.903   0.233  0.00  0.00    +0.002 A 
ATOM     14  C   UNL     1       6.909  -3.015   1.051  0.00  0.00    +0.019 A 
ATOM     15  C   UNL     1       5.694  -3.162   1.730  0.00  0.00    +0.052 A 
ATOM     16  C   UNL     1       4.688  -2.197   1.581  0.00  0.00    +0.032 A 
BRANCH  15  17
ATOM     17  C   UNL     1       5.482  -4.299   2.586  0.00  0.00    +0.099 C 
ATOM     18  N   UNL     1       5.312  -5.213   3.275  0.00  0.00    -0.191 NA
ENDBRANCH  15  17
ENDBRANCH   8  11
ENDBRANCH   4   7
BRANCH   1  19
ATOM     19  S   UNL     1      -2.103   3.418  -0.387  0.00  0.00    +0.072 S 
ATOM     20  O   UNL     1      -2.075   4.516   0.639  0.00  0.00    -0.150 OA
ATOM     21  O   UNL     1      -1.996   4.026  -1.758  0.00  0.00    -0.150 OA
BRANCH  19  22
ATOM     22  N   UNL     1      -3.603   2.555  -0.264  0.00  0.00    -0.213 N 
ATOM     23  H   UNL     1      -4.314   2.949   0.392  0.00  0.00    +0.174 HD
BRANCH  22  29
ATOM     24  C   UNL     1      -4.904   0.466  -0.445  0.00  0.00    +0.142 A 
ATOM     25  C   UNL     1      -5.138  -0.775  -1.071  0.00  0.00    +0.047 A 
ATOM     26  C   UNL     1      -4.338  -1.193  -2.134  0.00  0.00    +0.004 A 
ATOM     27  C   UNL     1      -3.300  -0.382  -2.589  0.00  0.00    +0.002 A 
ATOM     28  C   UNL     1      -3.057   0.851  -1.982  0.00  0.00    +0.028 A 
ATOM     29  C   UNL     1      -3.848   1.286  -0.901  0.00  0.00    +0.090 A 
BRANCH  24  31
ATOM     30  C   UNL     1      -6.776   0.179   1.194  0.00  0.00    +0.277 C 
ATOM     31  O   UNL     1      -5.690   0.908   0.632  0.00  0.00    -0.493 OA
ENDBRANCH  24  31
ENDBRANCH  22  29
ENDBRANCH  19  22
ENDBRANCH   1  19
TORSDOF 7
