REMARK  Name = 
REMARK  6 active torsions:
REMARK  status: ('A' for Active; 'I' for Inactive)
REMARK    1  A    between atoms: C_1  and  O_2
REMARK    2  A    between atoms: O_2  and  C_3
REMARK    3  A    between atoms: C_5  and  C_19
REMARK    4  A    between atoms: C_8  and  C_9
REMARK    5  A    between atoms: N_11  and  C_12
REMARK    6  A    between atoms: C_19  and  O_20
REMARK                            x       y       z     vdW  Elec       q    Type
REMARK                         _______ _______ _______ _____ _____    ______ ____
ROOT
ATOM      1  C   UNL     1       1.876  -0.598   0.410  0.00  0.00    +0.133 A 
ATOM      2  C   UNL     1       3.243  -0.591   0.756  0.00  0.00    +0.052 A 
ATOM      3  C   UNL     1       4.230  -0.432  -0.227  0.00  0.00    -0.019 A 
ATOM      4  C   UNL     1       3.852  -0.310  -1.569  0.00  0.00    +0.007 A 
ATOM      5  C   UNL     1       2.503  -0.306  -1.923  0.00  0.00    +0.017 A 
ATOM      6  C   UNL     1       1.504  -0.429  -0.943  0.00  0.00    +0.078 A 
ENDROOT
BRANCH   6   7
ATOM      7  C   UNL     1       0.082  -0.402  -1.359  0.00  0.00    +0.248 C 
ATOM      8  O   UNL     1      -0.247  -0.919  -2.462  0.00  0.00    -0.270 OA
ATOM      9  N   UNL     1      -0.912   0.241  -0.547  0.00  0.00    -0.308 N 
ATOM     10  H   UNL     1      -0.594   0.890   0.208  0.00  0.00    +0.149 HD
BRANCH   9  11
ATOM     11  C   UNL     1      -2.330   0.256  -0.918  0.00  0.00    +0.079 C 
ATOM     12  C   UNL     1      -2.656   1.513  -1.733  0.00  0.00    +0.023 C 
ATOM     13  C   UNL     1      -3.982   2.064  -1.198  0.00  0.00    +0.002 C 
ATOM     14  C   UNL     1      -4.081   1.631   0.259  0.00  0.00    +0.009 C 
ATOM     15  C   UNL     1      -3.233   0.377   0.307  0.00  0.00    -0.011 C 
ATOM     16  C   UNL     1      -2.865  -0.241   1.648  0.00  0.00    +0.009 C 
ATOM     17  C   UNL     1      -3.924  -0.901   0.774  0.00  0.00    +0.009 C 
ENDBRANCH   9  11
ENDBRANCH   6   7
BRANCH   1  19
ATOM     18  C   UNL     1       1.117  -0.975   2.769  0.00  0.00    +0.277 C 
ATOM     19  O   UNL     1       0.876  -0.797   1.377  0.00  0.00    -0.494 OA
ENDBRANCH   1  19
BRANCH   3  20
ATOM     20  C   UNL     1       5.685  -0.467   0.150  0.00  0.00    +0.191 C 
BRANCH  20  21
ATOM     21  O   UNL     1       6.125  -1.793   0.249  0.00  0.00    -0.390 OA
ATOM     22  H   UNL     1       6.237  -2.125  -0.680  0.00  0.00    +0.210 HD
ENDBRANCH  20  21
ENDBRANCH   3  20
TORSDOF 5
