REMARK  Name = 
REMARK  11 active torsions:
REMARK  status: ('A' for Active; 'I' for Inactive)
REMARK    1  A    between atoms: C_1  and  C_2
REMARK    2  A    between atoms: C_2  and  O_3
REMARK    3  A    between atoms: O_3  and  C_4
REMARK    4  A    between atoms: C_7  and  N_10
REMARK    5  A    between atoms: N_10  and  S_11
REMARK    6  A    between atoms: S_11  and  C_14
REMARK    7  A    between atoms: C_19  and  O_20
REMARK    8  A    between atoms: C_22  and  C_23
REMARK    9  A    between atoms: N_25  and  C_26
REMARK   10  A    between atoms: C_29  and  O_32
REMARK   11  A    between atoms: O_32  and  C_33
REMARK                            x       y       z     vdW  Elec       q    Type
REMARK                         _______ _______ _______ _____ _____    ______ ____
ROOT
ATOM      1  C   UNL     1       0.740   3.133   0.581  0.00  0.00    +0.109 A 
ATOM      2  C   UNL     1       1.418   3.901   1.537  0.00  0.00    +0.031 A 
ATOM      3  C   UNL     1       1.430   3.503   2.874  0.00  0.00    +0.030 A 
ATOM      4  C   UNL     1       0.749   2.349   3.273  0.00  0.00    +0.076 A 
ATOM      5  N   UNL     1       0.801   1.954   4.572  0.00  0.00    -0.213 NA
ATOM      6  C   UNL     1       0.171   0.836   5.011  0.00  0.00    +0.214 A 
ATOM      7  C   UNL     1      -0.575   0.061   4.119  0.00  0.00    +0.080 A 
ATOM      8  C   UNL     1      -0.676   0.439   2.773  0.00  0.00    +0.051 A 
ATOM      9  C   UNL     1       0.020   1.589   2.327  0.00  0.00    +0.015 A 
ATOM     10  C   UNL     1       0.047   1.982   0.973  0.00  0.00    +0.039 A 
ENDROOT
BRANCH   8  11
ATOM     11  C   UNL     1      -1.535  -0.368   1.882  0.00  0.00    +0.249 C 
ATOM     12  O   UNL     1      -1.324  -1.608   1.785  0.00  0.00    -0.270 OA
ATOM     13  N   UNL     1      -2.605   0.255   1.150  0.00  0.00    -0.280 N 
ATOM     14  H   UNL     1      -2.682   1.296   1.187  0.00  0.00    +0.155 HD
BRANCH  13  15
ATOM     15  C   UNL     1      -3.514  -0.445   0.286  0.00  0.00    +0.052 A 
ATOM     16  C   UNL     1      -4.008  -1.721   0.604  0.00  0.00    +0.030 A 
ATOM     17  C   UNL     1      -4.918  -2.352  -0.248  0.00  0.00    +0.069 A 
ATOM     18  C   UNL     1      -5.345  -1.696  -1.405  0.00  0.00    +0.214 A 
ATOM     19  N   UNL     1      -4.871  -0.451  -1.688  0.00  0.00    -0.219 NA
ATOM     20  C   UNL     1      -3.983   0.183  -0.876  0.00  0.00    +0.138 A 
BRANCH  18  21
ATOM     21  O   UNL     1      -6.260  -2.325  -2.253  0.00  0.00    -0.480 OA
ATOM     22  C   UNL     1      -6.749  -1.718  -3.443  0.00  0.00    +0.279 C 
ENDBRANCH  18  21
ENDBRANCH  13  15
ENDBRANCH   8  11
BRANCH   1  23
ATOM     23  S   UNL     1       0.783   3.586  -1.121  0.00  0.00    +0.072 S 
ATOM     24  O   UNL     1       1.867   4.595  -1.378  0.00  0.00    -0.150 OA
ATOM     25  O   UNL     1      -0.544   4.188  -1.493  0.00  0.00    -0.150 OA
BRANCH  23  26
ATOM     26  N   UNL     1       1.070   2.182  -2.101  0.00  0.00    -0.216 N 
ATOM     27  H   UNL     1       0.366   1.969  -2.843  0.00  0.00    +0.174 HD
BRANCH  26  31
ATOM     28  C   UNL     1       4.194  -0.642  -1.434  0.00  0.00    +0.121 A 
ATOM     29  C   UNL     1       4.195   0.577  -0.750  0.00  0.00    +0.047 A 
ATOM     30  C   UNL     1       3.184   1.518  -0.968  0.00  0.00    +0.028 A 
ATOM     31  C   UNL     1       2.138   1.246  -1.869  0.00  0.00    +0.048 A 
ATOM     32  C   UNL     1       2.145   0.028  -2.566  0.00  0.00    +0.028 A 
ATOM     33  C   UNL     1       3.163  -0.908  -2.354  0.00  0.00    +0.047 A 
BRANCH  28  34
ATOM     34  O   UNL     1       5.239  -1.545  -1.177  0.00  0.00    -0.492 OA
BRANCH  34  36
ATOM     35  C   UNL     1       4.423  -3.834  -1.083  0.00  0.00    +0.048 C 
ATOM     36  C   UNL     1       5.375  -2.846  -1.748  0.00  0.00    +0.225 C 
ENDBRANCH  34  36
ENDBRANCH  28  34
ENDBRANCH  26  31
ENDBRANCH  23  26
ENDBRANCH   1  23
BRANCH   6  37
ATOM     37  O   UNL     1       0.268   0.478   6.353  0.00  0.00    -0.492 OA
ATOM     38  H   UNL     1      -0.198  -0.344   6.718  0.00  0.00    +0.294 HD
ENDBRANCH   6  37
TORSDOF 9
