REMARK  Name = 
REMARK  6 active torsions:
REMARK  status: ('A' for Active; 'I' for Inactive)
REMARK    1  A    between atoms: C_1  and  S_2
REMARK    2  A    between atoms: S_2  and  C_5
REMARK    3  A    between atoms: C_10  and  C_11
REMARK    4  A    between atoms: N_13  and  C_14
REMARK    5  A    between atoms: C_18  and  S_20
REMARK    6  A    between atoms: S_20  and  N_23
REMARK                            x       y       z     vdW  Elec       q    Type
REMARK                         _______ _______ _______ _____ _____    ______ ____
ROOT
ATOM      1  C   UNL     1       0.728   1.489  -0.002  0.00  0.00    +0.036 A 
ATOM      2  C   UNL     1       0.728   2.117  -1.261  0.00  0.00    +0.023 A 
ATOM      3  C   UNL     1      -0.466   2.587  -1.814  0.00  0.00    +0.004 A 
ATOM      4  C   UNL     1      -1.670   2.425  -1.125  0.00  0.00    +0.028 A 
ATOM      5  C   UNL     1      -1.687   1.786   0.120  0.00  0.00    +0.107 A 
ATOM      6  C   UNL     1      -0.489   1.312   0.674  0.00  0.00    +0.051 A 
ENDROOT
BRANCH   1   9
ATOM      7  C   UNL     1       3.246   1.507   0.338  0.00  0.00    +0.250 C 
ATOM      8  O   UNL     1       3.379   2.694  -0.067  0.00  0.00    -0.270 OA
ATOM      9  N   UNL     1       1.937   0.968   0.578  0.00  0.00    -0.281 N 
ATOM     10  H   UNL     1       1.855   0.200   1.283  0.00  0.00    +0.155 HD
BRANCH   7  16
ATOM     11  C   UNL     1       4.634  -0.620   0.221  0.00  0.00    +0.100 A 
ATOM     12  C   UNL     1       5.774  -1.329   0.641  0.00  0.00    +0.028 A 
ATOM     13  C   UNL     1       6.733  -0.721   1.453  0.00  0.00    +0.002 A 
ATOM     14  C   UNL     1       6.569   0.602   1.857  0.00  0.00    +0.001 A 
ATOM     15  C   UNL     1       5.437   1.317   1.467  0.00  0.00    +0.015 A 
ATOM     16  C   UNL     1       4.449   0.716   0.667  0.00  0.00    +0.062 A 
BRANCH  11  18
ATOM     17  C   UNL     1       4.293  -2.718  -1.817  0.00  0.00    +0.200 C 
ATOM     18  S   UNL     1       3.504  -1.409  -0.900  0.00  0.00    -0.005 S 
ATOM     19  O   UNL     1       2.995  -0.410  -1.901  0.00  0.00    -0.170 OA
ATOM     20  O   UNL     1       2.349  -1.987  -0.133  0.00  0.00    -0.170 OA
ENDBRANCH  11  18
ENDBRANCH   7  16
ENDBRANCH   1   9
BRANCH   5  21
ATOM     21  S   UNL     1      -3.221   1.550   0.954  0.00  0.00    +0.061 S 
ATOM     22  O   UNL     1      -2.980   1.002   2.335  0.00  0.00    -0.153 OA
ATOM     23  O   UNL     1      -3.908   2.882   1.079  0.00  0.00    -0.153 OA
BRANCH  21  24
ATOM     24  N   UNL     1      -4.223   0.449   0.041  0.00  0.00    -0.177 NA
ATOM     25  C   UNL     1      -3.547  -0.858  -0.062  0.00  0.00    +0.109 C 
ATOM     26  C   UNL     1      -4.388  -1.828  -0.900  0.00  0.00    +0.017 C 
ATOM     27  C   UNL     1      -5.786  -1.986  -0.296  0.00  0.00    +0.003 C 
ATOM     28  C   UNL     1      -6.444  -0.618  -0.095  0.00  0.00    +0.017 C 
ATOM     29  C   UNL     1      -5.527   0.307   0.713  0.00  0.00    +0.109 C 
ENDBRANCH  21  24
ENDBRANCH   5  21
TORSDOF 5
