REMARK  Name = 
REMARK  6 active torsions:
REMARK  status: ('A' for Active; 'I' for Inactive)
REMARK    1  A    between atoms: N_1  and  S_2
REMARK    2  A    between atoms: S_2  and  C_5
REMARK    3  A    between atoms: C_8  and  C_11
REMARK    4  A    between atoms: C_11  and  N_12
REMARK    5  A    between atoms: C_13  and  C_15
REMARK    6  A    between atoms: C_18  and  C_21
REMARK                            x       y       z     vdW  Elec       q    Type
REMARK                         _______ _______ _______ _____ _____    ______ ____
ROOT
ATOM      1  N   UNL     1       0.726  -1.825   0.564  0.00  0.00    -0.307 N 
ATOM      2  C   UNL     1       1.327  -1.013  -0.459  0.00  0.00    +0.246 C 
ATOM      3  O   UNL     1       0.780  -0.937  -1.594  0.00  0.00    -0.270 OA
ATOM      4  H   UNL     1       1.091  -1.788   1.542  0.00  0.00    +0.149 HD
ENDROOT
BRANCH   2   5
ATOM      5  C   UNL     1       2.569  -0.247  -0.202  0.00  0.00    +0.055 A 
ATOM      6  C   UNL     1       2.870   0.890  -0.969  0.00  0.00    +0.016 A 
ATOM      7  C   UNL     1       4.040   1.612  -0.731  0.00  0.00    +0.033 A 
ATOM      8  C   UNL     1       4.918   1.190   0.276  0.00  0.00    +0.144 A 
ATOM      9  N   UNL     1       4.621   0.076   0.999  0.00  0.00    -0.250 NA
ATOM     10  C   UNL     1       3.485  -0.642   0.789  0.00  0.00    +0.124 A 
BRANCH   8  11
ATOM     11  C   UNL     1       6.185   1.947   0.545  0.00  0.00    +0.434 C 
ATOM     12  F   UNL     1       6.876   1.379   1.601  0.00  0.00    -0.164 F 
ATOM     13  F   UNL     1       6.988   1.924  -0.580  0.00  0.00    -0.164 F 
ATOM     14  F   UNL     1       5.885   3.260   0.863  0.00  0.00    -0.164 F 
ENDBRANCH   8  11
ENDBRANCH   2   5
BRANCH   1  15
ATOM     15  C   UNL     1      -0.456  -2.647   0.314  0.00  0.00    +0.139 C 
BRANCH  15  19
ATOM     16  C   UNL     1      -3.957  -0.132   0.096  0.00  0.00    +0.105 A 
ATOM     17  C   UNL     1      -3.307  -0.335   1.320  0.00  0.00    +0.029 A 
ATOM     18  C   UNL     1      -2.178  -1.156   1.390  0.00  0.00    +0.007 A 
ATOM     19  C   UNL     1      -1.685  -1.783   0.235  0.00  0.00    -0.030 A 
ATOM     20  C   UNL     1      -2.332  -1.569  -0.993  0.00  0.00    +0.007 A 
ATOM     21  C   UNL     1      -3.461  -0.747  -1.061  0.00  0.00    +0.029 A 
BRANCH  16  22
ATOM     22  S   UNL     1      -5.367   0.918   0.008  0.00  0.00    +0.056 S 
ATOM     23  O   UNL     1      -6.146   0.831   1.290  0.00  0.00    -0.153 OA
ATOM     24  O   UNL     1      -6.254   0.485  -1.126  0.00  0.00    -0.153 OA
BRANCH  22  25
ATOM     25  N   UNL     1      -4.854   2.548  -0.252  0.00  0.00    -0.204 NA
ATOM     26  H   UNL     1      -5.711   3.145  -0.233  0.00  0.00    +0.144 HD
ATOM     27  H   UNL     1      -4.277   2.821   0.575  0.00  0.00    +0.144 HD
ENDBRANCH  22  25
ENDBRANCH  16  22
ENDBRANCH  15  19
ENDBRANCH   1  15
TORSDOF 6
