REMARK  Name = 
REMARK  10 active torsions:
REMARK  status: ('A' for Active; 'I' for Inactive)
REMARK    1  A    between atoms: C_1  and  C_2
REMARK    2  A    between atoms: C_2  and  C_3
REMARK    3  A    between atoms: C_2  and  O_4
REMARK    4  A    between atoms: O_4  and  C_5
REMARK    5  A    between atoms: C_10  and  C_11
REMARK    6  A    between atoms: N_13  and  C_14
REMARK    7  A    between atoms: C_14  and  C_15
REMARK    8  A    between atoms: C_15  and  C_16
REMARK    9  A    between atoms: C_15  and  C_19
REMARK   10  A    between atoms: C_16  and  O_18
REMARK                            x       y       z     vdW  Elec       q    Type
REMARK                         _______ _______ _______ _____ _____    ______ ____
ROOT
ATOM      1  C   UNL     1       0.477  -1.532  -0.288  0.00  0.00    +0.248 C 
ATOM      2  O   UNL     1      -0.234  -2.549  -0.063  0.00  0.00    -0.270 OA
ATOM      3  N   UNL     1       0.362  -0.371   0.551  0.00  0.00    -0.310 N 
ATOM      4  H   UNL     1       0.841   0.512   0.265  0.00  0.00    +0.149 HD
ENDROOT
BRANCH   1  10
ATOM      5  C   UNL     1       2.683  -0.963  -1.372  0.00  0.00    +0.133 A 
ATOM      6  C   UNL     1       3.509  -0.971  -2.515  0.00  0.00    +0.046 A 
ATOM      7  C   UNL     1       3.068  -1.555  -3.704  0.00  0.00    +0.004 A 
ATOM      8  C   UNL     1       1.806  -2.143  -3.769  0.00  0.00    +0.001 A 
ATOM      9  C   UNL     1       0.974  -2.139  -2.649  0.00  0.00    +0.017 A 
ATOM     10  C   UNL     1       1.395  -1.538  -1.450  0.00  0.00    +0.078 A 
BRANCH   5  11
ATOM     11  O   UNL     1       3.117  -0.432  -0.144  0.00  0.00    -0.489 OA
BRANCH  11  13
ATOM     12  C   UNL     1       4.140   1.740  -0.519  0.00  0.00    +0.051 C 
ATOM     13  C   UNL     1       4.303   0.336   0.072  0.00  0.00    +0.167 C 
ATOM     14  C   UNL     1       4.555   0.424   1.576  0.00  0.00    +0.051 C 
ENDBRANCH  11  13
ENDBRANCH   5  11
ENDBRANCH   1  10
BRANCH   3  15
ATOM     15  C   UNL     1      -0.425  -0.347   1.784  0.00  0.00    +0.119 C 
BRANCH  15  16
ATOM     16  C   UNL     1      -1.515   0.744   1.717  0.00  0.00    +0.118 C 
BRANCH  16  17
ATOM     17  C   UNL     1      -2.545   0.496   0.574  0.00  0.00    +0.009 C 
ATOM     18  C   UNL     1      -3.502   1.689   0.388  0.00  0.00    +0.032 C 
ATOM     19  C   UNL     1      -4.471   1.439  -0.793  0.00  0.00    +0.160 C 
ATOM     20  O   UNL     1      -4.487   0.089  -1.232  0.00  0.00    -0.380 OA
ATOM     21  C   UNL     1      -4.640  -0.781  -0.129  0.00  0.00    +0.160 C 
ATOM     22  C   UNL     1      -3.360  -0.812   0.726  0.00  0.00    +0.032 C 
ENDBRANCH  16  17
BRANCH  16  23
ATOM     23  C   UNL     1      -2.170   0.934   3.064  0.00  0.00    +0.310 C 
ATOM     24  O   UNL     1      -2.437  -0.055   3.800  0.00  0.00    -0.251 OA
BRANCH  23  25
ATOM     25  O   UNL     1      -2.502   2.217   3.491  0.00  0.00    -0.480 OA
ATOM     26  H   UNL     1      -2.950   2.367   4.387  0.00  0.00    +0.295 HD
ENDBRANCH  23  25
ENDBRANCH  16  23
ENDBRANCH  15  16
ENDBRANCH   3  15
TORSDOF 8
