REMARK  Name = 
REMARK  3 active torsions:
REMARK  status: ('A' for Active; 'I' for Inactive)
REMARK    1  A    between atoms: C_2  and  C_3
REMARK    2  A    between atoms: C_6  and  S_9
REMARK    3  A    between atoms: S_9  and  N_12
REMARK                            x       y       z     vdW  Elec       q    Type
REMARK                         _______ _______ _______ _____ _____    ______ ____
ROOT
ATOM      1  S   UNL     1       0.196   1.419  -2.190  0.00  0.00    +0.074 S 
ATOM      2  O   UNL     1       0.120   2.917  -2.105  0.00  0.00    -0.150 OA
ATOM      3  O   UNL     1       0.846   1.039  -3.490  0.00  0.00    -0.150 OA
ENDROOT
BRANCH   1   4
ATOM      4  N   UNL     1      -1.409   0.760  -2.137  0.00  0.00    -0.198 N 
ATOM      5  C   UNL     1      -1.897   0.076  -0.978  0.00  0.00    +0.156 A 
ATOM      6  N   UNL     1      -2.241  -1.237  -1.087  0.00  0.00    -0.238 NA
ATOM      7  C   UNL     1      -2.685  -1.958  -0.023  0.00  0.00    +0.113 A 
ATOM      8  C   UNL     1      -2.805  -1.353   1.228  0.00  0.00    +0.021 A 
ATOM      9  C   UNL     1      -2.481  -0.004   1.368  0.00  0.00    +0.025 A 
ATOM     10  C   UNL     1      -2.031   0.727   0.264  0.00  0.00    +0.082 A 
ATOM     11 CL   UNL     1      -1.730   2.448   0.455  0.00  0.00    -0.080 Cl
ATOM     12  H   UNL     1      -1.845   0.525  -3.056  0.00  0.00    +0.175 HD
ENDBRANCH   1   4
BRANCH   1  16
ATOM     13  C   UNL     1       2.665  -0.293   1.252  0.00  0.00    +0.052 A 
ATOM     14  C   UNL     1       2.457   1.089   1.164  0.00  0.00    +0.021 A 
ATOM     15  C   UNL     1       1.712   1.620   0.106  0.00  0.00    +0.030 A 
ATOM     16  C   UNL     1       1.169   0.771  -0.870  0.00  0.00    +0.109 A 
ATOM     17  C   UNL     1       1.384  -0.611  -0.781  0.00  0.00    +0.030 A 
ATOM     18  C   UNL     1       2.128  -1.142   0.277  0.00  0.00    +0.021 A 
BRANCH  13  20
ATOM     19  N   UNL     1       4.043  -1.279   3.220  0.00  0.00    -0.191 NA
ATOM     20  C   UNL     1       3.429  -0.839   2.343  0.00  0.00    +0.099 C 
ENDBRANCH  13  20
ENDBRANCH   1  16
TORSDOF 3
