REMARK  Name = 
REMARK  7 active torsions:
REMARK  status: ('A' for Active; 'I' for Inactive)
REMARK    1  A    between atoms: C_1  and  C_2
REMARK    2  A    between atoms: C_6  and  C_8
REMARK    3  A    between atoms: C_14  and  C_16
REMARK    4  A    between atoms: C_19  and  S_22
REMARK    5  A    between atoms: S_22  and  N_25
REMARK    6  A    between atoms: N_25  and  C_26
REMARK    7  A    between atoms: N_25  and  C_27
REMARK                            x       y       z     vdW  Elec       q    Type
REMARK                         _______ _______ _______ _____ _____    ______ ____
ROOT
ATOM      1  C   UNL     1       0.044   0.878   0.222  0.00  0.00    +0.037 A 
ATOM      2  C   UNL     1       0.332   0.778  -1.150  0.00  0.00    +0.015 A 
ATOM      3  C   UNL     1       1.656   0.699  -1.591  0.00  0.00    +0.029 A 
ATOM      4  C   UNL     1       2.709   0.725  -0.667  0.00  0.00    +0.109 A 
ATOM      5  C   UNL     1       2.428   0.849   0.699  0.00  0.00    +0.029 A 
ATOM      6  C   UNL     1       1.105   0.928   1.141  0.00  0.00    +0.015 A 
ENDROOT
BRANCH   1  14
ATOM      7  C   UNL     1      -3.073  -3.051   0.753  0.00  0.00    +0.039 C 
ATOM      8  C   UNL     1      -3.426  -2.005  -0.304  0.00  0.00    +0.133 C 
ATOM      9  C   UNL     1      -2.217  -1.054  -0.557  0.00  0.00    +0.139 C 
ATOM     10  N   UNL     1      -2.432   0.266   0.054  0.00  0.00    -0.292 N 
ATOM     11  C   UNL     1      -3.759   0.887  -0.009  0.00  0.00    +0.144 C 
ATOM     12  C   UNL     1      -4.784  -0.112  -0.560  0.00  0.00    +0.166 C 
ATOM     13  O   UNL     1      -4.614  -1.343   0.112  0.00  0.00    -0.366 OA
ATOM     14  C   UNL     1      -1.355   0.976   0.699  0.00  0.00    +0.247 C 
ATOM     15  O   UNL     1      -1.607   1.702   1.700  0.00  0.00    -0.270 OA
BRANCH  12  16
ATOM     16  C   UNL     1      -6.187   0.407  -0.346  0.00  0.00    -0.017 A 
ATOM     17  C   UNL     1      -6.824   0.275   0.902  0.00  0.00    +0.006 A 
ATOM     18  C   UNL     1      -8.109   0.788   1.097  0.00  0.00    +0.000 A 
ATOM     19  C   UNL     1      -8.766   1.448   0.056  0.00  0.00    +0.000 A 
ATOM     20  C   UNL     1      -8.136   1.601  -1.181  0.00  0.00    +0.000 A 
ATOM     21  C   UNL     1      -6.851   1.087  -1.383  0.00  0.00    +0.006 A 
ENDBRANCH  12  16
ENDBRANCH   1  14
BRANCH   4  22
ATOM     22  S   UNL     1       4.382   0.627  -1.208  0.00  0.00    +0.074 S 
ATOM     23  O   UNL     1       4.981   2.003  -1.130  0.00  0.00    -0.150 OA
ATOM     24  O   UNL     1       4.449   0.136  -2.627  0.00  0.00    -0.150 OA
BRANCH  22  25
ATOM     25  N   UNL     1       5.264  -0.474  -0.188  0.00  0.00    -0.206 N 
ATOM     26  C   UNL     1       4.659  -1.758   0.163  0.00  0.00    +0.157 C 
BRANCH  25  27
ATOM     27  C   UNL     1       6.590  -0.150   0.267  0.00  0.00    +0.051 A 
ATOM     28  C   UNL     1       7.535   0.397  -0.620  0.00  0.00    +0.025 A 
ATOM     29  C   UNL     1       8.826   0.703  -0.178  0.00  0.00    +0.002 A 
ATOM     30  C   UNL     1       9.187   0.463   1.150  0.00  0.00    +0.000 A 
ATOM     31  C   UNL     1       8.258  -0.084   2.038  0.00  0.00    +0.002 A 
ATOM     32  C   UNL     1       6.967  -0.392   1.601  0.00  0.00    +0.025 A 
ENDBRANCH  25  27
ENDBRANCH  22  25
ENDBRANCH   4  22
TORSDOF 5
