REMARK  Name = 
REMARK  7 active torsions:
REMARK  status: ('A' for Active; 'I' for Inactive)
REMARK    1  A    between atoms: C_1  and  O_2
REMARK    2  A    between atoms: O_2  and  C_3
REMARK    3  A    between atoms: C_5  and  C_22
REMARK    4  A    between atoms: C_8  and  S_9
REMARK    5  A    between atoms: S_9  and  N_12
REMARK    6  A    between atoms: C_19  and  C_20
REMARK    7  A    between atoms: C_22  and  O_24
REMARK                            x       y       z     vdW  Elec       q    Type
REMARK                         _______ _______ _______ _____ _____    ______ ____
ROOT
ATOM      1  S   UNL     1      -0.351  -1.238   0.131  0.00  0.00    +0.064 S 
ATOM      2  O   UNL     1       0.160  -1.404  -1.274  0.00  0.00    -0.153 OA
ATOM      3  O   UNL     1      -0.378  -2.579   0.810  0.00  0.00    -0.153 OA
ENDROOT
BRANCH   1   4
ATOM      4  N   UNL     1       0.706  -0.148   1.003  0.00  0.00    -0.175 NA
ATOM      5  C   UNL     1       0.887   1.127   0.263  0.00  0.00    +0.111 C 
ATOM      6  C   UNL     1       2.105   1.174  -0.686  0.00  0.00    +0.036 C 
ATOM      7  C   UNL     1       3.388   1.605   0.039  0.00  0.00    +0.109 C 
ATOM      8  N   UNL     1       3.886   0.527   0.903  0.00  0.00    -0.300 N 
ATOM      9  C   UNL     1       3.014   0.065   1.990  0.00  0.00    +0.125 C 
ATOM     10  C   UNL     1       1.929  -0.863   1.424  0.00  0.00    +0.128 C 
ATOM     11  C   UNL     1       5.067  -0.238   0.562  0.00  0.00    +0.212 C 
ATOM     12  C   UNL     1       6.097   0.277  -0.398  0.00  0.00    +0.109 C 
ATOM     13  O   UNL     1       5.247  -1.377   1.073  0.00  0.00    -0.276 OA
ENDBRANCH   1   4
BRANCH   1  19
ATOM     14  C   UNL     1      -2.916  -1.008  -0.883  0.00  0.00    +0.147 A 
ATOM     15  C   UNL     1      -4.222  -0.477  -0.873  0.00  0.00    +0.062 A 
ATOM     16  C   UNL     1      -4.618   0.444   0.113  0.00  0.00    +0.062 A 
ATOM     17  C   UNL     1      -3.695   0.827   1.097  0.00  0.00    +0.017 A 
ATOM     18  C   UNL     1      -2.401   0.308   1.094  0.00  0.00    +0.033 A 
ATOM     19  C   UNL     1      -1.998  -0.597   0.102  0.00  0.00    +0.147 A 
BRANCH  14  21
ATOM     20  C   UNL     1      -3.331  -2.442  -2.895  0.00  0.00    +0.277 C 
ATOM     21  O   UNL     1      -2.506  -1.944  -1.847  0.00  0.00    -0.493 OA
ENDBRANCH  14  21
BRANCH  16  22
ATOM     22  C   UNL     1      -5.990   1.000   0.121  0.00  0.00    +0.337 C 
ATOM     23  O   UNL     1      -6.824   0.658  -0.760  0.00  0.00    -0.245 OA
BRANCH  22  24
ATOM     24  O   UNL     1      -6.372   1.910   1.104  0.00  0.00    -0.477 OA
ATOM     25  H   UNL     1      -7.309   2.297   1.119  0.00  0.00    +0.295 HD
ENDBRANCH  22  24
ENDBRANCH  16  22
ENDBRANCH   1  19
TORSDOF 5
