REMARK  Name = 
REMARK  9 active torsions:
REMARK  status: ('A' for Active; 'I' for Inactive)
REMARK    1  A    between atoms: C_1  and  C_2
REMARK    2  A    between atoms: C_6  and  C_9
REMARK    3  A    between atoms: C_7  and  C_8
REMARK    4  A    between atoms: C_9  and  C_10
REMARK    5  A    between atoms: C_9  and  N_11
REMARK    6  A    between atoms: C_12  and  C_14
REMARK    7  A    between atoms: C_19  and  O_20
REMARK    8  A    between atoms: O_20  and  C_21
REMARK    9  A    between atoms: C_21  and  C_22
REMARK                            x       y       z     vdW  Elec       q    Type
REMARK                         _______ _______ _______ _____ _____    ______ ____
ROOT
ATOM      1  N   UNL     1      -0.184  -0.168  -0.803  0.00  0.00    -0.305 N 
ATOM      2  C   UNL     1       0.762  -0.484  -1.836  0.00  0.00    +0.248 C 
ATOM      3  O   UNL     1       0.447  -0.325  -3.047  0.00  0.00    -0.270 OA
ATOM      4  H   UNL     1      -0.017  -0.542   0.159  0.00  0.00    +0.150 HD
ENDROOT
BRANCH   2   5
ATOM      5  C   UNL     1       2.097  -1.030  -1.499  0.00  0.00    +0.078 A 
ATOM      6  C   UNL     1       2.667  -2.008  -2.333  0.00  0.00    +0.017 A 
ATOM      7  C   UNL     1       3.919  -2.550  -2.040  0.00  0.00    +0.001 A 
ATOM      8  C   UNL     1       4.620  -2.119  -0.915  0.00  0.00    +0.004 A 
ATOM      9  C   UNL     1       4.078  -1.136  -0.085  0.00  0.00    +0.046 A 
ATOM     10  C   UNL     1       2.818  -0.571  -0.372  0.00  0.00    +0.133 A 
BRANCH  10  11
ATOM     11  O   UNL     1       2.270   0.456   0.419  0.00  0.00    -0.482 OA
BRANCH  11  12
ATOM     12  C   UNL     1       2.898   1.067   1.545  0.00  0.00    +0.324 C 
BRANCH  12  13
ATOM     13  C   UNL     1       4.028   1.948   1.106  0.00  0.00    +0.248 C 
ATOM     14  N   UNL     1       5.306   1.860   1.736  0.00  0.00    -0.327 N 
ATOM     15  O   UNL     1       3.840   2.795   0.192  0.00  0.00    -0.272 OA
ATOM     16  H   UNL     1       5.476   1.177   2.508  0.00  0.00    +0.145 HD
ATOM     17  H   UNL     1       6.087   2.482   1.431  0.00  0.00    +0.145 HD
ENDBRANCH  12  13
ENDBRANCH  11  12
ENDBRANCH  10  11
ENDBRANCH   2   5
BRANCH   1  18
ATOM     18  C   UNL     1      -1.387   0.631  -1.058  0.00  0.00    +0.101 C 
ATOM     19  C   UNL     1      -1.004   2.097  -1.315  0.00  0.00    +0.033 C 
BRANCH  18  25
ATOM     20  C   UNL     1      -5.554  -1.469   1.115  0.00  0.00    +0.044 C 
ATOM     21  C   UNL     1      -4.359  -0.549   1.135  0.00  0.00    -0.047 A 
ATOM     22  C   UNL     1      -4.146   0.238   2.277  0.00  0.00    +0.003 A 
ATOM     23  C   UNL     1      -3.057   1.098   2.352  0.00  0.00    +0.001 A 
ATOM     24  C   UNL     1      -2.179   1.211   1.280  0.00  0.00    +0.006 A 
ATOM     25  C   UNL     1      -2.376   0.469   0.098  0.00  0.00    -0.024 A 
ATOM     26  C   UNL     1      -3.438  -0.483   0.052  0.00  0.00    -0.043 A 
ATOM     27  C   UNL     1      -3.599  -1.394  -1.148  0.00  0.00    +0.044 C 
ENDBRANCH  18  25
ENDBRANCH   1  18
TORSDOF 6
