REMARK  Name = 
REMARK  8 active torsions:
REMARK  status: ('A' for Active; 'I' for Inactive)
REMARK    1  A    between atoms: C_1  and  C_2
REMARK    2  A    between atoms: C_2  and  C_3
REMARK    3  A    between atoms: C_3  and  N_4
REMARK    4  A    between atoms: C_3  and  C_11
REMARK    5  A    between atoms: N_4  and  C_5
REMARK    6  A    between atoms: C_5  and  C_6
REMARK    7  A    between atoms: C_15  and  S_17
REMARK    8  A    between atoms: S_17  and  N_18
REMARK                            x       y       z     vdW  Elec       q    Type
REMARK                         _______ _______ _______ _____ _____    ______ ____
ROOT
ATOM      1  C   UNL     1      -0.650  -0.657  -0.232  0.00  0.00    -0.029 A 
ATOM      2  C   UNL     1      -0.703  -0.953  -1.607  0.00  0.00    +0.005 A 
ATOM      3  C   UNL     1      -1.924  -0.945  -2.285  0.00  0.00    +0.002 A 
ATOM      4  C   UNL     1      -3.105  -0.649  -1.601  0.00  0.00    +0.028 A 
ATOM      5  C   UNL     1      -3.071  -0.366  -0.230  0.00  0.00    +0.105 A 
ATOM      6  C   UNL     1      -1.845  -0.367   0.450  0.00  0.00    +0.033 A 
ENDROOT
BRANCH   5   7
ATOM      7  S   UNL     1      -4.556   0.014   0.638  0.00  0.00    +0.056 S 
ATOM      8  O   UNL     1      -5.740  -0.543  -0.101  0.00  0.00    -0.153 OA
ATOM      9  O   UNL     1      -4.509  -0.600   2.009  0.00  0.00    -0.153 OA
BRANCH   7  10
ATOM     10  N   UNL     1      -4.715   1.730   0.777  0.00  0.00    -0.204 NA
ATOM     11  H   UNL     1      -4.775   2.110  -0.194  0.00  0.00    +0.144 HD
ATOM     12  H   UNL     1      -5.637   1.915   1.231  0.00  0.00    +0.144 HD
ENDBRANCH   7  10
ENDBRANCH   5   7
BRANCH   1  13
ATOM     13  C   UNL     1       0.670  -0.676   0.515  0.00  0.00    +0.084 C 
BRANCH  13  15
ATOM     14  C   UNL     1       0.320  -3.031   1.448  0.00  0.00    +0.006 C 
ATOM     15  C   UNL     1       1.228  -2.118   0.624  0.00  0.00    +0.020 C 
ENDBRANCH  13  15
BRANCH  13  16
ATOM     16  N   UNL     1       1.621   0.224  -0.169  0.00  0.00    -0.303 NA
ATOM     17  H   UNL     1       2.122  -0.296  -0.928  0.00  0.00    +0.123 HD
BRANCH  16  18
ATOM     18  C   UNL     1       2.616   0.788   0.752  0.00  0.00    +0.144 C 
BRANCH  18  19
ATOM     19  C   UNL     1       3.471   1.774   0.024  0.00  0.00    +0.092 A 
ATOM     20  N   UNL     1       3.114   3.060  -0.183  0.00  0.00    -0.251 NA
ATOM     21  C   UNL     1       4.035   3.726  -0.930  0.00  0.00    +0.119 A 
ATOM     22  C   UNL     1       5.125   2.966  -1.338  0.00  0.00    +0.066 A 
ATOM     23  S   UNL     1       4.923   1.408  -0.739  0.00  0.00    -0.079 S 
ENDBRANCH  18  19
ENDBRANCH  16  18
ENDBRANCH  13  16
ENDBRANCH   1  13
TORSDOF 7
