REMARK  Name = 
REMARK  5 active torsions:
REMARK  status: ('A' for Active; 'I' for Inactive)
REMARK    1  A    between atoms: C_1  and  C_2
REMARK    2  A    between atoms: C_6  and  N_7
REMARK    3  A    between atoms: N_18  and  S_19
REMARK    4  A    between atoms: S_19  and  C_22
REMARK    5  A    between atoms: C_28  and  C_29
REMARK                            x       y       z     vdW  Elec       q    Type
REMARK                         _______ _______ _______ _____ _____    ______ ____
ROOT
ATOM      1  N   UNL     1      -1.263  -0.956  -1.038  0.00  0.00    -0.296 N 
ATOM      2  C   UNL     1      -0.564   0.193  -0.531  0.00  0.00    +0.165 A 
ATOM      3  N   UNL     1      -1.171   0.991   0.393  0.00  0.00    -0.227 NA
ATOM      4  C   UNL     1      -0.578   2.117   0.865  0.00  0.00    +0.091 A 
ATOM      5  C   UNL     1      -1.220   2.918   1.815  0.00  0.00    +0.030 A 
ATOM      6  C   UNL     1      -0.594   4.080   2.281  0.00  0.00    +0.002 A 
ATOM      7  C   UNL     1       0.671   4.439   1.801  0.00  0.00    +0.002 A 
ATOM      8  C   UNL     1       1.317   3.639   0.852  0.00  0.00    +0.030 A 
ATOM      9  C   UNL     1       0.692   2.479   0.382  0.00  0.00    +0.091 A 
ATOM     10  N   UNL     1       1.301   1.688  -0.535  0.00  0.00    -0.226 NA
ATOM     11  C   UNL     1       0.719   0.550  -1.007  0.00  0.00    +0.179 A 
ATOM     12  N   UNL     1       1.440  -0.279  -1.932  0.00  0.00    -0.197 N 
ATOM     13  H   UNL     1      -1.080  -1.268  -2.017  0.00  0.00    +0.154 HD
ATOM     14  H   UNL     1       1.109  -1.238  -2.169  0.00  0.00    +0.175 HD
ENDROOT
BRANCH   1  20
ATOM     15  C   UNL     1      -5.665  -3.411  -0.827  0.00  0.00    +0.044 C 
ATOM     16  C   UNL     1      -4.421  -2.843  -0.191  0.00  0.00    -0.046 A 
ATOM     17  C   UNL     1      -4.218  -3.045   1.184  0.00  0.00    +0.004 A 
ATOM     18  C   UNL     1      -3.078  -2.553   1.813  0.00  0.00    +0.002 A 
ATOM     19  C   UNL     1      -2.120  -1.856   1.080  0.00  0.00    +0.023 A 
ATOM     20  C   UNL     1      -2.300  -1.621  -0.292  0.00  0.00    +0.036 A 
ATOM     21  C   UNL     1      -3.474  -2.091  -0.936  0.00  0.00    -0.026 A 
ATOM     22  C   UNL     1      -3.685  -1.814  -2.408  0.00  0.00    +0.046 C 
ENDBRANCH   1  20
BRANCH  12  23
ATOM     23  S   UNL     1       2.973   0.206  -2.579  0.00  0.00    +0.074 S 
ATOM     24  O   UNL     1       2.812   1.494  -3.337  0.00  0.00    -0.150 OA
ATOM     25  O   UNL     1       3.470  -0.847  -3.529  0.00  0.00    -0.150 OA
BRANCH  23  26
ATOM     26  C   UNL     1       4.135   0.395  -1.270  0.00  0.00    +0.109 A 
ATOM     27  C   UNL     1       4.638  -0.739  -0.618  0.00  0.00    +0.029 A 
ATOM     28  C   UNL     1       5.541  -0.599   0.440  0.00  0.00    +0.002 A 
ATOM     29  C   UNL     1       5.941   0.675   0.855  0.00  0.00    +0.000 A 
ATOM     30  C   UNL     1       5.439   1.809   0.211  0.00  0.00    +0.002 A 
ATOM     31  C   UNL     1       4.538   1.672  -0.850  0.00  0.00    +0.029 A 
ENDBRANCH  23  26
ENDBRANCH  12  23
TORSDOF 3
