REMARK  Name = 
REMARK  8 active torsions:
REMARK  status: ('A' for Active; 'I' for Inactive)
REMARK    1  A    between atoms: C_1  and  S_2
REMARK    2  A    between atoms: S_2  and  N_5
REMARK    3  A    between atoms: C_8  and  C_11
REMARK    4  A    between atoms: N_13  and  C_14
REMARK    5  A    between atoms: C_14  and  C_15
REMARK    6  A    between atoms: C_14  and  C_19
REMARK    7  A    between atoms: C_15  and  C_16
REMARK    8  A    between atoms: C_16  and  O_18
REMARK                            x       y       z     vdW  Elec       q    Type
REMARK                         _______ _______ _______ _____ _____    ______ ____
ROOT
ATOM      1  C   UNL     1       0.411   0.228   0.971  0.00  0.00    +0.217 C 
ATOM      2  O   UNL     1       0.775   1.427   0.819  0.00  0.00    -0.275 OA
ATOM      3  N   UNL     1       1.393  -0.803   1.149  0.00  0.00    -0.308 N 
ATOM      4  H   UNL     1       1.063  -1.773   1.355  0.00  0.00    +0.149 HD
ENDROOT
BRANCH   1   8
ATOM      5  N   UNL     1      -3.424   1.599   0.208  0.00  0.00    -0.181 NA
ATOM      6  C   UNL     1      -3.116   0.317  -0.465  0.00  0.00    +0.110 C 
ATOM      7  C   UNL     1      -1.609   0.048  -0.498  0.00  0.00    +0.030 C 
ATOM      8  C   UNL     1      -1.058  -0.117   0.935  0.00  0.00    +0.077 C 
ATOM      9  C   UNL     1      -1.859   0.707   1.972  0.00  0.00    +0.030 C 
ATOM     10  C   UNL     1      -2.517   1.940   1.333  0.00  0.00    +0.110 C 
BRANCH   5  12
ATOM     11  C   UNL     1      -6.169   1.244  -0.648  0.00  0.00    +0.215 C 
ATOM     12  S   UNL     1      -5.095   1.623   0.721  0.00  0.00    +0.029 S 
ATOM     13  O   UNL     1      -5.313   0.617   1.818  0.00  0.00    -0.158 OA
ATOM     14  O   UNL     1      -5.443   2.993   1.231  0.00  0.00    -0.158 OA
ENDBRANCH   5  12
ENDBRANCH   1   8
BRANCH   3  15
ATOM     15  C   UNL     1       2.831  -0.536   1.015  0.00  0.00    +0.114 C 
BRANCH  15  16
ATOM     16  C   UNL     1       3.196  -0.199  -0.420  0.00  0.00    -0.027 A 
ATOM     17  C   UNL     1       2.561  -0.837  -1.504  0.00  0.00    +0.008 A 
ATOM     18  C   UNL     1       2.934  -0.539  -2.818  0.00  0.00    +0.038 A 
ATOM     19  C   UNL     1       3.946   0.393  -3.065  0.00  0.00    +0.123 A 
ATOM     20  F   UNL     1       4.304   0.681  -4.340  0.00  0.00    -0.205 F 
ATOM     21  C   UNL     1       4.590   1.022  -1.997  0.00  0.00    +0.038 A 
ATOM     22  C   UNL     1       4.223   0.725  -0.681  0.00  0.00    +0.008 A 
ENDBRANCH  15  16
BRANCH  15  23
ATOM     23  C   UNL     1       3.679  -1.708   1.557  0.00  0.00    +0.147 C 
BRANCH  23  24
ATOM     24  C   UNL     1       3.526  -2.974   0.766  0.00  0.00    +0.307 C 
ATOM     25  O   UNL     1       4.277  -3.198  -0.221  0.00  0.00    -0.251 OA
BRANCH  24  26
ATOM     26  O   UNL     1       2.542  -3.895   1.111  0.00  0.00    -0.481 OA
ATOM     27  H   UNL     1       2.418  -4.747   0.578  0.00  0.00    +0.295 HD
ENDBRANCH  24  26
ENDBRANCH  23  24
ENDBRANCH  15  23
ENDBRANCH   3  15
TORSDOF 7
