REMARK  Name = 
REMARK  11 active torsions:
REMARK  status: ('A' for Active; 'I' for Inactive)
REMARK    1  A    between atoms: C_1  and  C_2
REMARK    2  A    between atoms: C_2  and  O_3
REMARK    3  A    between atoms: O_3  and  C_4
REMARK    4  A    between atoms: C_9  and  O_10
REMARK    5  A    between atoms: O_10  and  C_11
REMARK    6  A    between atoms: C_11  and  C_12
REMARK    7  A    between atoms: N_14  and  C_15
REMARK    8  A    between atoms: C_15  and  C_16
REMARK    9  A    between atoms: C_15  and  C_20
REMARK   10  A    between atoms: C_16  and  C_17
REMARK   11  A    between atoms: C_17  and  O_19
REMARK                            x       y       z     vdW  Elec       q    Type
REMARK                         _______ _______ _______ _____ _____    ______ ____
ROOT
ATOM      1  C   UNL     1      -1.064  -0.496  -1.087  0.00  0.00    +0.251 C 
ATOM      2  O   UNL     1      -1.395   0.173  -2.103  0.00  0.00    -0.272 OA
ATOM      3  N   UNL     1      -1.827  -0.402   0.127  0.00  0.00    -0.305 N 
ATOM      4  H   UNL     1      -1.550  -0.999   0.941  0.00  0.00    +0.149 HD
ENDROOT
BRANCH   1   5
ATOM      5  C   UNL     1       0.137  -1.384  -1.161  0.00  0.00    +0.324 C 
BRANCH   5   6
ATOM      6  O   UNL     1       1.294  -0.585  -1.400  0.00  0.00    -0.479 OA
BRANCH   6  12
ATOM      7  C   UNL     1       3.640  -0.180  -1.792  0.00  0.00    +0.162 A 
ATOM      8  C   UNL     1       4.956  -0.661  -1.951  0.00  0.00    +0.049 A 
ATOM      9  C   UNL     1       5.222  -2.030  -1.856  0.00  0.00    +0.004 A 
ATOM     10  C   UNL     1       4.186  -2.931  -1.606  0.00  0.00    +0.004 A 
ATOM     11  C   UNL     1       2.877  -2.468  -1.453  0.00  0.00    +0.049 A 
ATOM     12  C   UNL     1       2.596  -1.090  -1.546  0.00  0.00    +0.163 A 
BRANCH   7  13
ATOM     13  O   UNL     1       3.322   1.188  -1.877  0.00  0.00    -0.489 OA
BRANCH  13  15
ATOM     14  C   UNL     1       4.964   2.533  -0.687  0.00  0.00    +0.048 C 
ATOM     15  C   UNL     1       4.261   2.257  -2.013  0.00  0.00    +0.226 C 
ENDBRANCH  13  15
ENDBRANCH   7  13
ENDBRANCH   6  12
ENDBRANCH   5   6
ENDBRANCH   1   5
BRANCH   3  16
ATOM     16  C   UNL     1      -3.009   0.462   0.251  0.00  0.00    +0.114 C 
BRANCH  16  17
ATOM     17  C   UNL     1      -3.223   0.858   1.712  0.00  0.00    -0.027 A 
ATOM     18  C   UNL     1      -4.453   0.700   2.392  0.00  0.00    +0.005 A 
ATOM     19  C   UNL     1      -4.586   1.107   3.724  0.00  0.00    +0.000 A 
ATOM     20  C   UNL     1      -3.506   1.685   4.395  0.00  0.00    +0.000 A 
ATOM     21  C   UNL     1      -2.289   1.863   3.734  0.00  0.00    +0.000 A 
ATOM     22  C   UNL     1      -2.150   1.460   2.402  0.00  0.00    +0.005 A 
ENDBRANCH  16  17
BRANCH  16  23
ATOM     23  C   UNL     1      -4.219  -0.187  -0.465  0.00  0.00    +0.147 C 
BRANCH  23  24
ATOM     24  C   UNL     1      -4.480  -1.615  -0.064  0.00  0.00    +0.307 C 
ATOM     25  O   UNL     1      -5.057  -2.389  -0.875  0.00  0.00    -0.251 OA
BRANCH  24  26
ATOM     26  O   UNL     1      -4.134  -2.080   1.202  0.00  0.00    -0.481 OA
ATOM     27  H   UNL     1      -4.323  -3.037   1.475  0.00  0.00    +0.295 HD
ENDBRANCH  24  26
ENDBRANCH  23  24
ENDBRANCH  16  23
ENDBRANCH   3  16
TORSDOF 10
