REMARK  Name = 
REMARK  7 active torsions:
REMARK  status: ('A' for Active; 'I' for Inactive)
REMARK    1  A    between atoms: C_1  and  O_2
REMARK    2  A    between atoms: O_2  and  C_3
REMARK    3  A    between atoms: C_5  and  C_22
REMARK    4  A    between atoms: C_8  and  S_9
REMARK    5  A    between atoms: S_9  and  N_12
REMARK    6  A    between atoms: C_19  and  C_20
REMARK    7  A    between atoms: C_22  and  O_24
REMARK                            x       y       z     vdW  Elec       q    Type
REMARK                         _______ _______ _______ _____ _____    ______ ____
ROOT
ATOM      1  S   UNL     1      -0.604  -2.324  -0.070  0.00  0.00    +0.064 S 
ATOM      2  O   UNL     1      -0.357  -3.410  -1.081  0.00  0.00    -0.153 OA
ATOM      3  O   UNL     1      -1.351  -2.937   1.082  0.00  0.00    -0.153 OA
ENDROOT
BRANCH   1   4
ATOM      4  N   UNL     1       0.933  -1.693   0.484  0.00  0.00    -0.175 NA
ATOM      5  C   UNL     1       1.683  -1.124  -0.663  0.00  0.00    +0.111 C 
ATOM      6  C   UNL     1       3.192  -1.404  -0.552  0.00  0.00    +0.036 C 
ATOM      7  C   UNL     1       3.770  -1.208   0.856  0.00  0.00    +0.109 C 
ATOM      8  N   UNL     1       3.105  -0.100   1.551  0.00  0.00    -0.300 N 
ATOM      9  C   UNL     1       1.946  -0.433   2.390  0.00  0.00    +0.125 C 
ATOM     10  C   UNL     1       0.695  -0.682   1.540  0.00  0.00    +0.128 C 
ATOM     11  C   UNL     1       3.457   1.267   1.231  0.00  0.00    +0.212 C 
ATOM     12  C   UNL     1       2.685   2.433   1.774  0.00  0.00    +0.109 C 
ATOM     13  O   UNL     1       4.448   1.500   0.485  0.00  0.00    -0.276 OA
ENDBRANCH   1   4
BRANCH   1  19
ATOM     14  C   UNL     1      -2.423  -0.224  -0.037  0.00  0.00    +0.147 A 
ATOM     15  C   UNL     1      -3.159   0.799  -0.667  0.00  0.00    +0.062 A 
ATOM     16  C   UNL     1      -3.066   1.006  -2.054  0.00  0.00    +0.062 A 
ATOM     17  C   UNL     1      -2.231   0.173  -2.813  0.00  0.00    +0.017 A 
ATOM     18  C   UNL     1      -1.497  -0.841  -2.197  0.00  0.00    +0.033 A 
ATOM     19  C   UNL     1      -1.581  -1.046  -0.813  0.00  0.00    +0.147 A 
BRANCH  14  21
ATOM     20  C   UNL     1      -3.352   0.276   2.239  0.00  0.00    +0.277 C 
ATOM     21  O   UNL     1      -2.506  -0.446   1.348  0.00  0.00    -0.493 OA
ENDBRANCH  14  21
BRANCH  16  22
ATOM     22  C   UNL     1      -3.838   2.086  -2.710  0.00  0.00    +0.337 C 
ATOM     23  O   UNL     1      -4.635   2.800  -2.043  0.00  0.00    -0.245 OA
BRANCH  22  24
ATOM     24  O   UNL     1      -3.692   2.322  -4.075  0.00  0.00    -0.477 OA
ATOM     25  H   UNL     1      -4.216   3.057  -4.534  0.00  0.00    +0.295 HD
ENDBRANCH  22  24
ENDBRANCH  16  22
ENDBRANCH   1  19
TORSDOF 5
