REMARK  Name = 
REMARK  8 active torsions:
REMARK  status: ('A' for Active; 'I' for Inactive)
REMARK    1  A    between atoms: C_1  and  O_2
REMARK    2  A    between atoms: O_2  and  C_3
REMARK    3  A    between atoms: C_5  and  C_12
REMARK    4  A    between atoms: C_8  and  C_9
REMARK    5  A    between atoms: C_9  and  O_11
REMARK    6  A    between atoms: C_12  and  N_13
REMARK    7  A    between atoms: C_14  and  C_16
REMARK    8  A    between atoms: C_18  and  C_19
REMARK                            x       y       z     vdW  Elec       q    Type
REMARK                         _______ _______ _______ _____ _____    ______ ____
ROOT
ATOM      1  N   UNL     1       0.436   1.454   0.371  0.00  0.00    -0.311 N 
ATOM      2  C   UNL     1       0.573   0.077   0.771  0.00  0.00    +0.217 C 
ATOM      3  O   UNL     1      -0.217  -0.400   1.629  0.00  0.00    -0.275 OA
ATOM      4  H   UNL     1       1.125   1.896  -0.276  0.00  0.00    +0.149 HD
ENDROOT
BRANCH   2   5
ATOM      5  C   UNL     1       1.633  -0.844   0.208  0.00  0.00    +0.083 C 
ATOM      6  C   UNL     1       2.037  -0.608  -1.247  0.00  0.00    +0.022 C 
ATOM      7  C   UNL     1       2.989  -0.219  -0.114  0.00  0.00    +0.032 C 
BRANCH   7   8
ATOM      8  C   UNL     1       4.217  -1.094   0.081  0.00  0.00    -0.043 A 
ATOM      9  C   UNL     1       5.404  -0.468   0.500  0.00  0.00    +0.007 A 
ATOM     10  C   UNL     1       6.571  -1.211   0.702  0.00  0.00    +0.038 A 
ATOM     11  C   UNL     1       6.568  -2.591   0.490  0.00  0.00    +0.123 A 
ATOM     12  F   UNL     1       7.700  -3.310   0.689  0.00  0.00    -0.205 F 
ATOM     13  C   UNL     1       5.398  -3.230   0.076  0.00  0.00    +0.038 A 
ATOM     14  C   UNL     1       4.228  -2.492  -0.129  0.00  0.00    +0.007 A 
ENDBRANCH   7   8
ENDBRANCH   2   5
BRANCH   1  15
ATOM     15  C   UNL     1      -0.667   2.290   0.840  0.00  0.00    +0.139 C 
BRANCH  15  18
ATOM     16  C   UNL     1      -4.136   0.802   0.210  0.00  0.00    +0.134 A 
ATOM     17  C   UNL     1      -2.945   1.200   0.854  0.00  0.00    +0.051 A 
ATOM     18  C   UNL     1      -1.947   1.892   0.156  0.00  0.00    -0.027 A 
ATOM     19  C   UNL     1      -2.131   2.182  -1.199  0.00  0.00    +0.006 A 
ATOM     20  C   UNL     1      -3.303   1.796  -1.850  0.00  0.00    +0.019 A 
ATOM     21  C   UNL     1      -4.319   1.106  -1.161  0.00  0.00    +0.100 A 
BRANCH  16  23
ATOM     22  C   UNL     1      -5.069  -0.272   2.277  0.00  0.00    +0.277 C 
ATOM     23  O   UNL     1      -5.140   0.107   0.906  0.00  0.00    -0.494 OA
ENDBRANCH  16  23
BRANCH  21  24
ATOM     24  C   UNL     1      -5.553   0.713  -1.892  0.00  0.00    +0.340 C 
ATOM     25  O   UNL     1      -5.674   0.978  -3.120  0.00  0.00    -0.245 OA
BRANCH  24  26
ATOM     26  O   UNL     1      -6.593   0.053  -1.243  0.00  0.00    -0.477 OA
ATOM     27  H   UNL     1      -7.434  -0.213  -1.742  0.00  0.00    +0.295 HD
ENDBRANCH  24  26
ENDBRANCH  21  24
ENDBRANCH  15  18
ENDBRANCH   1  15
TORSDOF 7
