REMARK  Name = 
REMARK  9 active torsions:
REMARK  status: ('A' for Active; 'I' for Inactive)
REMARK    1  A    between atoms: C_2  and  OXT_3
REMARK    2  A    between atoms: C_2  and  CA_4
REMARK    3  A    between atoms: CA_4  and  CB_5
REMARK    4  A    between atoms: CA_4  and  N_13
REMARK    5  A    between atoms: CB_5  and  CG_6
REMARK    6  A    between atoms: CZ_9  and  OH_10
REMARK    7  A    between atoms: C_14  and  C_16
REMARK    8  A    between atoms: C_16  and  C_17
REMARK    9  A    between atoms: C_16  and  C_23
REMARK                            x       y       z     vdW  Elec       q    Type
REMARK                         _______ _______ _______ _____ _____    ______ ____
ROOT
ATOM      1  N   TYR A   1       0.646   1.748  -0.927  0.00  0.00    -0.301 N 
ATOM      2  C   UNK A   0      -0.138   0.565  -0.709  0.00  0.00    +0.225 C 
ATOM      3  O   UNK A   0      -0.069  -0.396  -1.524  0.00  0.00    -0.275 OA
ATOM      4  H   TYR A   1       0.541   2.542  -0.255  0.00  0.00    +0.150 HD
ENDROOT
BRANCH   1   5
ATOM      5  CA  TYR A   1       1.764   1.783  -1.877  0.00  0.00    +0.186 C 
BRANCH   5   7
ATOM      6  O   TYR A   1       1.875   4.182  -1.881  0.00  0.00    -0.249 OA
ATOM      7  C   TYR A   1       1.812   3.121  -2.560  0.00  0.00    +0.326 C 
BRANCH   7   8
ATOM      8  OXT TYR A   1       1.808   3.188  -3.950  0.00  0.00    -0.479 OA
ATOM      9  HXT TYR A   1       1.848   4.081  -4.427  0.00  0.00    +0.295 HD
ENDBRANCH   7   8
ENDBRANCH   5   7
BRANCH   5  10
ATOM     10  CB  TYR A   1       3.094   1.502  -1.155  0.00  0.00    +0.069 C 
BRANCH  10  11
ATOM     11  CG  TYR A   1       3.090   0.146  -0.497  0.00  0.00    -0.045 A 
ATOM     12  CD1 TYR A   1       2.854   0.026   0.883  0.00  0.00    +0.007 A 
ATOM     13  CE1 TYR A   1       2.788  -1.237   1.480  0.00  0.00    +0.045 A 
ATOM     14  CZ  TYR A   1       2.938  -2.392   0.702  0.00  0.00    +0.117 A 
ATOM     15  CE2 TYR A   1       3.174  -2.278  -0.671  0.00  0.00    +0.045 A 
ATOM     16  CD2 TYR A   1       3.251  -1.016  -1.270  0.00  0.00    +0.007 A 
BRANCH  14  17
ATOM     17  OH  TYR A   1       2.849  -3.655   1.283  0.00  0.00    -0.507 OA
ATOM     18  HH  TYR A   1       2.668  -3.771   2.273  0.00  0.00    +0.292 HD
ENDBRANCH  14  17
ENDBRANCH  10  11
ENDBRANCH   5  10
ENDBRANCH   1   5
BRANCH   2  19
ATOM     19  C   UNK A   0      -1.063   0.483   0.485  0.00  0.00    +0.135 C 
BRANCH  19  20
ATOM     20  C   UNK A   0      -2.462   0.999   0.190  0.00  0.00    -0.031 A 
ATOM     21  C   UNK A   0      -3.075   0.831  -1.070  0.00  0.00    +0.005 A 
ATOM     22  C   UNK A   0      -4.378   1.288  -1.290  0.00  0.00    +0.000 A 
ATOM     23  C   UNK A   0      -5.088   1.905  -0.259  0.00  0.00    +0.000 A 
ATOM     24  C   UNK A   0      -4.500   2.061   0.998  0.00  0.00    +0.000 A 
ATOM     25  C   UNK A   0      -3.198   1.606   1.224  0.00  0.00    +0.005 A 
ENDBRANCH  19  20
BRANCH  19  26
ATOM     26  C   UNK A   0      -1.100  -0.918   1.071  0.00  0.00    -0.031 A 
ATOM     27  C   UNK A   0      -1.736  -1.978   0.394  0.00  0.00    +0.005 A 
ATOM     28  C   UNK A   0      -1.724  -3.269   0.929  0.00  0.00    +0.000 A 
ATOM     29  C   UNK A   0      -1.078  -3.520   2.142  0.00  0.00    +0.000 A 
ATOM     30  C   UNK A   0      -0.447  -2.478   2.824  0.00  0.00    +0.000 A 
ATOM     31  C   UNK A   0      -0.458  -1.184   2.294  0.00  0.00    +0.005 A 
ENDBRANCH  19  26
ENDBRANCH   2  19
TORSDOF 9
