REMARK  Name = 
REMARK  7 active torsions:
REMARK  status: ('A' for Active; 'I' for Inactive)
REMARK    1  A    between atoms: C_2  and  O_3
REMARK    2  A    between atoms: C_2  and  C_4
REMARK    3  A    between atoms: C_4  and  C_5
REMARK    4  A    between atoms: C_4  and  N_12
REMARK    5  A    between atoms: C_5  and  C_6
REMARK    6  A    between atoms: N_12  and  S_13
REMARK    7  A    between atoms: S_13  and  C_16
REMARK                            x       y       z     vdW  Elec       q    Type
REMARK                         _______ _______ _______ _____ _____    ______ ____
ROOT
ATOM      1  N   UNL     1      -1.378   2.699  -1.122  0.00  0.00    -0.176 NA
ATOM      2  H   UNL     1      -1.077   2.709  -0.121  0.00  0.00    +0.149 HD
ENDROOT
BRANCH   1   3
ATOM      3  S   UNL     1       0.033   2.285  -2.050  0.00  0.00    +0.059 S 
ATOM      4  O   UNL     1       1.050   3.384  -1.928  0.00  0.00    -0.153 OA
ATOM      5  O   UNL     1      -0.337   2.132  -3.500  0.00  0.00    -0.153 OA
BRANCH   3   6
ATOM      6  C   UNL     1       0.721   0.787  -1.429  0.00  0.00    +0.109 A 
ATOM      7  C   UNL     1       0.584  -0.410  -2.138  0.00  0.00    +0.032 A 
ATOM      8  C   UNL     1       1.078  -1.600  -1.602  0.00  0.00    +0.051 A 
ATOM      9  C   UNL     1       1.728  -1.614  -0.362  0.00  0.00    +0.162 A 
ATOM     10  O   UNL     1       2.130  -2.859   0.134  0.00  0.00    -0.488 OA
ATOM     11  C   UNL     1       3.374  -3.119   0.772  0.00  0.00    +0.232 C 
ATOM     12  C   UNL     1       3.436  -2.481   2.152  0.00  0.00    +0.082 C 
ATOM     13  C   UNL     1       3.627  -0.975   2.046  0.00  0.00    +0.232 C 
ATOM     14  O   UNL     1       2.429  -0.327   1.640  0.00  0.00    -0.488 OA
ATOM     15  C   UNL     1       1.870  -0.402   0.359  0.00  0.00    +0.164 A 
ATOM     16  C   UNL     1       1.355   0.782  -0.182  0.00  0.00    +0.078 A 
ENDBRANCH   3   6
ENDBRANCH   1   3
BRANCH   1  17
ATOM     17  C   UNL     1      -2.464   1.723  -1.347  0.00  0.00    +0.189 C 
BRANCH  17  19
ATOM     18  O   UNL     1      -3.963   3.455  -2.055  0.00  0.00    -0.249 OA
ATOM     19  C   UNL     1      -3.460   2.324  -2.295  0.00  0.00    +0.324 C 
BRANCH  19  20
ATOM     20  O   UNL     1      -3.842   1.622  -3.434  0.00  0.00    -0.479 OA
ATOM     21  H   UNL     1      -4.518   2.011  -4.081  0.00  0.00    +0.295 HD
ENDBRANCH  19  20
ENDBRANCH  17  19
BRANCH  17  22
ATOM     22  C   UNL     1      -3.171   1.332  -0.030  0.00  0.00    +0.067 C 
BRANCH  22  23
ATOM     23  C   UNL     1      -2.305   0.438   0.825  0.00  0.00    -0.042 A 
ATOM     24  C   UNL     1      -1.656   0.941   1.962  0.00  0.00    +0.023 A 
ATOM     25  C   UNL     1      -0.855   0.093   2.730  0.00  0.00    +0.111 A 
ATOM     26  N   UNL     1      -0.705  -1.211   2.376  0.00  0.00    -0.263 NA
ATOM     27  C   UNL     1      -1.319  -1.725   1.277  0.00  0.00    +0.111 A 
ATOM     28  C   UNL     1      -2.127  -0.911   0.480  0.00  0.00    +0.023 A 
ENDBRANCH  22  23
ENDBRANCH  17  22
ENDBRANCH   1  17
TORSDOF 7
