REMARK  Name = 
REMARK  9 active torsions:
REMARK  status: ('A' for Active; 'I' for Inactive)
REMARK    1  A    between atoms: C_1  and  O_2
REMARK    2  A    between atoms: O_2  and  C_3
REMARK    3  A    between atoms: C_7  and  C_12
REMARK    4  A    between atoms: C_12  and  C_13
REMARK    5  A    between atoms: N_15  and  C_16
REMARK    6  A    between atoms: C_16  and  C_17
REMARK    7  A    between atoms: C_16  and  C_21
REMARK    8  A    between atoms: C_17  and  C_18
REMARK    9  A    between atoms: C_18  and  O_20
REMARK                            x       y       z     vdW  Elec       q    Type
REMARK                         _______ _______ _______ _____ _____    ______ ____
ROOT
ATOM      1  C   UNL     1      -0.081   0.481  -1.214  0.00  0.00    +0.218 C 
ATOM      2  O   UNL     1      -0.085  -0.673  -1.722  0.00  0.00    -0.275 OA
ATOM      3  N   UNL     1      -1.244   0.979  -0.537  0.00  0.00    -0.308 N 
ATOM      4  H   UNL     1      -1.206   1.943  -0.136  0.00  0.00    +0.149 HD
ENDROOT
BRANCH   1   5
ATOM      5  C   UNL     1       1.160   1.314  -1.282  0.00  0.00    +0.134 C 
BRANCH   5  10
ATOM      6  C   UNL     1       4.392  -1.463   1.911  0.00  0.00    +0.124 A 
ATOM      7  C   UNL     1       3.981  -1.810   0.602  0.00  0.00    +0.046 A 
ATOM      8  C   UNL     1       3.133  -0.964  -0.136  0.00  0.00    +0.015 A 
ATOM      9  C   UNL     1       2.717   0.221   0.465  0.00  0.00    +0.024 A 
ATOM     10  C   UNL     1       1.898   1.237   0.019  0.00  0.00    +0.007 A 
ATOM     11  C   UNL     1       1.827   2.137   1.077  0.00  0.00    +0.200 A 
ATOM     12  O   UNL     1       2.565   1.708   2.086  0.00  0.00    -0.463 OA
ATOM     13  C   UNL     1       3.101   0.564   1.733  0.00  0.00    +0.139 A 
ATOM     14  C   UNL     1       3.943  -0.249   2.489  0.00  0.00    +0.092 A 
BRANCH   6  16
ATOM     15  C   UNL     1       5.738  -2.128   3.911  0.00  0.00    +0.277 C 
ATOM     16  O   UNL     1       5.239  -2.349   2.596  0.00  0.00    -0.495 OA
ENDBRANCH   6  16
ENDBRANCH   5  10
ENDBRANCH   1   5
BRANCH   3  17
ATOM     17  C   UNL     1      -2.463   0.176  -0.387  0.00  0.00    +0.114 C 
BRANCH  17  18
ATOM     18  C   UNL     1      -3.164   0.035  -1.723  0.00  0.00    -0.027 A 
ATOM     19  C   UNL     1      -3.643  -1.219  -2.139  0.00  0.00    +0.005 A 
ATOM     20  C   UNL     1      -4.311  -1.350  -3.361  0.00  0.00    +0.000 A 
ATOM     21  C   UNL     1      -4.513  -0.231  -4.174  0.00  0.00    +0.000 A 
ATOM     22  C   UNL     1      -4.050   1.021  -3.764  0.00  0.00    +0.000 A 
ATOM     23  C   UNL     1      -3.383   1.158  -2.543  0.00  0.00    +0.005 A 
ENDBRANCH  17  18
BRANCH  17  24
ATOM     24  C   UNL     1      -3.419   0.808   0.642  0.00  0.00    +0.147 C 
BRANCH  24  25
ATOM     25  C   UNL     1      -2.820   0.801   2.016  0.00  0.00    +0.307 C 
ATOM     26  O   UNL     1      -2.226   1.822   2.455  0.00  0.00    -0.251 OA
BRANCH  25  27
ATOM     27  O   UNL     1      -2.887  -0.351   2.794  0.00  0.00    -0.481 OA
ATOM     28  H   UNL     1      -2.481  -0.374   3.724  0.00  0.00    +0.295 HD
ENDBRANCH  25  27
ENDBRANCH  24  25
ENDBRANCH  17  24
ENDBRANCH   3  17
TORSDOF 8
