REMARK  Name = 
REMARK  9 active torsions:
REMARK  status: ('A' for Active; 'I' for Inactive)
REMARK    1  A    between atoms: C_1  and  O_2
REMARK    2  A    between atoms: O_2  and  C_3
REMARK    3  A    between atoms: C_5  and  C_13
REMARK    4  A    between atoms: C_7  and  O_8
REMARK    5  A    between atoms: O_8  and  C_9
REMARK    6  A    between atoms: C_10  and  O_11
REMARK    7  A    between atoms: O_11  and  C_12
REMARK    8  A    between atoms: N_15  and  C_16
REMARK    9  A    between atoms: C_21  and  C_22
REMARK                            x       y       z     vdW  Elec       q    Type
REMARK                         _______ _______ _______ _____ _____    ______ ____
ROOT
ATOM      1  C   UNL     1      -0.664  -0.902  -0.037  0.00  0.00    +0.248 C 
ATOM      2  O   UNL     1      -0.337  -2.097  -0.275  0.00  0.00    -0.270 OA
ATOM      3  N   UNL     1       0.350   0.077   0.256  0.00  0.00    -0.281 N 
ATOM      4  H   UNL     1       0.080   1.082   0.335  0.00  0.00    +0.155 HD
ENDROOT
BRANCH   3   5
ATOM      5  C   UNL     1       1.749  -0.231   0.384  0.00  0.00    +0.036 A 
ATOM      6  C   UNL     1       2.186  -1.403   1.029  0.00  0.00    +0.027 A 
ATOM      7  C   UNL     1       3.553  -1.667   1.161  0.00  0.00    +0.049 A 
ATOM      8  C   UNL     1       4.494  -0.756   0.675  0.00  0.00    +0.143 A 
ATOM      9  O   UNL     1       5.861  -1.031   0.800  0.00  0.00    -0.478 OA
ATOM     10  C   UNL     1       6.885  -0.043   0.631  0.00  0.00    +0.256 C 
ATOM     11  C   UNL     1       8.149  -0.728   0.114  0.00  0.00    +0.062 C 
ATOM     12  C   UNL     1       6.440   1.073  -0.288  0.00  0.00    +0.258 C 
ATOM     13  O   UNL     1       7.289   1.845  -0.809  0.00  0.00    -0.271 OA
ATOM     14  N   UNL     1       5.045   1.320  -0.487  0.00  0.00    -0.279 N 
ATOM     15  C   UNL     1       4.069   0.420   0.045  0.00  0.00    +0.077 A 
ATOM     16  C   UNL     1       2.700   0.685  -0.091  0.00  0.00    +0.050 A 
ATOM     17  H   UNL     1       4.745   2.158  -1.035  0.00  0.00    +0.155 HD
ENDBRANCH   3   5
BRANCH   1  20
ATOM     18  C   UNL     1      -3.877   1.087  -0.537  0.00  0.00    +0.166 A 
ATOM     19  C   UNL     1      -2.512   0.738  -0.502  0.00  0.00    +0.062 A 
ATOM     20  C   UNL     1      -2.099  -0.532  -0.074  0.00  0.00    +0.044 A 
ATOM     21  C   UNL     1      -3.068  -1.472   0.298  0.00  0.00    +0.062 A 
ATOM     22  C   UNL     1      -4.435  -1.147   0.272  0.00  0.00    +0.166 A 
ATOM     23  C   UNL     1      -4.846   0.130  -0.141  0.00  0.00    +0.204 A 
BRANCH  18  25
ATOM     24  C   UNL     1      -3.407   3.405  -1.379  0.00  0.00    +0.277 C 
ATOM     25  O   UNL     1      -4.283   2.361  -0.964  0.00  0.00    -0.491 OA
ENDBRANCH  18  25
BRANCH  22  26
ATOM     26  O   UNL     1      -5.423  -2.071   0.651  0.00  0.00    -0.491 OA
ATOM     27  C   UNL     1      -5.164  -3.401   1.090  0.00  0.00    +0.277 C 
ENDBRANCH  22  26
BRANCH  23  28
ATOM     28  O   UNL     1      -6.233   0.379  -0.134  0.00  0.00    -0.488 OA
ATOM     29  C   UNL     1      -6.880   1.592  -0.501  0.00  0.00    +0.277 C 
ENDBRANCH  23  28
ENDBRANCH   1  20
TORSDOF 5
