REMARK  Name = 
REMARK  3 active torsions:
REMARK  status: ('A' for Active; 'I' for Inactive)
REMARK    1  A    between atoms: C_2  and  C_3
REMARK    2  A    between atoms: N_6  and  S_9
REMARK    3  A    between atoms: S_9  and  C_12
REMARK                            x       y       z     vdW  Elec       q    Type
REMARK                         _______ _______ _______ _____ _____    ______ ____
ROOT
ATOM      1  C   UNL     1      -0.995   0.935  -0.717  0.00  0.00    +0.078 C 
ATOM      2  C   UNL     1       0.256   1.674  -1.226  0.00  0.00    +0.030 C 
ATOM      3  C   UNL     1       1.468   1.436  -0.297  0.00  0.00    +0.110 C 
ATOM      4  N   UNL     1       1.070   0.935   1.037  0.00  0.00    -0.177 NA
ATOM      5  C   UNL     1      -0.085   1.684   1.560  0.00  0.00    +0.110 C 
ATOM      6  C   UNL     1      -1.341   1.397   0.715  0.00  0.00    +0.030 C 
ENDROOT
BRANCH   1   8
ATOM      7  O   UNL     1      -2.273   2.183  -2.318  0.00  0.00    -0.275 OA
ATOM      8  C   UNL     1      -2.189   1.127  -1.631  0.00  0.00    +0.219 C 
ATOM      9  N   UNL     1      -3.276   0.176  -1.655  0.00  0.00    -0.301 N 
ATOM     10  C   UNL     1      -3.054  -1.228  -1.271  0.00  0.00    +0.108 C 
ATOM     11  C   UNL     1      -4.273  -2.104  -1.587  0.00  0.00    +0.023 C 
ATOM     12  C   UNL     1      -5.582  -1.521  -1.005  0.00  0.00    -0.005 C 
ATOM     13  C   UNL     1      -5.793  -2.000   0.451  0.00  0.00    +0.004 C 
ATOM     14  C   UNL     1      -6.960  -1.254   1.104  0.00  0.00    +0.000 C 
ATOM     15  C   UNL     1      -6.721   0.268   1.169  0.00  0.00    +0.000 C 
ATOM     16  C   UNL     1      -5.627   0.763   0.207  0.00  0.00    +0.005 C 
ATOM     17  C   UNL     1      -5.688   0.037  -1.155  0.00  0.00    +0.010 C 
ATOM     18  C   UNL     1      -4.612   0.599  -2.103  0.00  0.00    +0.111 C 
ENDBRANCH   1   8
BRANCH   4  19
ATOM     19  S   UNL     1       2.414   1.069   2.144  0.00  0.00    +0.061 S 
ATOM     20  O   UNL     1       2.040   0.466   3.470  0.00  0.00    -0.153 OA
ATOM     21  O   UNL     1       2.767   2.516   2.359  0.00  0.00    -0.153 OA
BRANCH  19  22
ATOM     22  C   UNL     1       3.805   0.201   1.499  0.00  0.00    +0.109 A 
ATOM     23  C   UNL     1       3.861  -1.191   1.595  0.00  0.00    +0.032 A 
ATOM     24  C   UNL     1       4.946  -1.887   1.059  0.00  0.00    +0.051 A 
ATOM     25  C   UNL     1       5.996  -1.206   0.433  0.00  0.00    +0.162 A 
ATOM     26  O   UNL     1       7.023  -1.978  -0.121  0.00  0.00    -0.488 OA
ATOM     27  C   UNL     1       8.409  -1.687  -0.001  0.00  0.00    +0.232 C 
ATOM     28  C   UNL     1       8.799  -0.480  -0.843  0.00  0.00    +0.082 C 
ATOM     29  C   UNL     1       8.305   0.812  -0.206  0.00  0.00    +0.232 C 
ATOM     30  O   UNL     1       6.899   0.963  -0.357  0.00  0.00    -0.488 OA
ATOM     31  C   UNL     1       5.939   0.206   0.323  0.00  0.00    +0.164 A 
ATOM     32  C   UNL     1       4.836   0.891   0.850  0.00  0.00    +0.078 A 
ENDBRANCH  19  22
ENDBRANCH   4  19
TORSDOF 3
