REMARK  Name = 
REMARK  5 active torsions:
REMARK  status: ('A' for Active; 'I' for Inactive)
REMARK    1  A    between atoms: C_1  and  C_2
REMARK    2  A    between atoms: C_5  and  S_11
REMARK    3  A    between atoms: C_7  and  C_8
REMARK    4  A    between atoms: S_11  and  N_14
REMARK    5  A    between atoms: C_18  and  C_19
REMARK                            x       y       z     vdW  Elec       q    Type
REMARK                         _______ _______ _______ _____ _____    ______ ____
ROOT
ATOM      1  C   UNL     1       4.822   1.574  -0.394  0.00  0.00    +0.044 C 
ATOM      2  C   UNL     1       3.413   1.078  -0.596  0.00  0.00    -0.038 A 
ATOM      3  C   UNL     1       2.403   2.020  -0.851  0.00  0.00    +0.006 A 
ATOM      4  C   UNL     1       1.090   1.611  -1.090  0.00  0.00    +0.029 A 
ATOM      5  C   UNL     1       0.765   0.251  -1.079  0.00  0.00    +0.106 A 
ATOM      6  C   UNL     1       1.756  -0.696  -0.799  0.00  0.00    +0.041 A 
ATOM      7  C   UNL     1       3.078  -0.299  -0.534  0.00  0.00    +0.041 A 
ENDROOT
BRANCH   7   8
ATOM      8  C   UNL     1       4.072  -1.346  -0.212  0.00  0.00    +0.242 C 
ATOM      9  N   UNL     1       4.935  -1.218   0.919  0.00  0.00    -0.325 N 
ATOM     10  O   UNL     1       4.128  -2.389  -0.917  0.00  0.00    -0.270 OA
ATOM     11  H   UNL     1       4.803  -0.448   1.611  0.00  0.00    +0.145 HD
ATOM     12  H   UNL     1       5.659  -1.946   1.111  0.00  0.00    +0.145 HD
ENDBRANCH   7   8
BRANCH   5  13
ATOM     13  S   UNL     1      -0.891  -0.279  -1.367  0.00  0.00    +0.061 S 
ATOM     14  O   UNL     1      -1.695   0.856  -1.937  0.00  0.00    -0.153 OA
ATOM     15  O   UNL     1      -0.860  -1.392  -2.376  0.00  0.00    -0.153 OA
BRANCH  13  16
ATOM     16  N   UNL     1      -1.591  -0.859   0.131  0.00  0.00    -0.172 NA
ATOM     17  C   UNL     1      -1.608   0.172   1.186  0.00  0.00    +0.137 C 
ATOM     18  C   UNL     1      -2.810   1.119   1.056  0.00  0.00    +0.177 C 
ATOM     19  O   UNL     1      -4.020   0.393   1.018  0.00  0.00    -0.374 OA
ATOM     20  C   UNL     1      -4.046  -0.431  -0.131  0.00  0.00    +0.131 C 
ATOM     21  C   UNL     1      -5.405  -1.125  -0.205  0.00  0.00    +0.039 C 
ATOM     22  C   UNL     1      -2.914  -1.479  -0.067  0.00  0.00    +0.140 C 
ENDBRANCH  13  16
ENDBRANCH   5  13
TORSDOF 3
