REMARK  Name = 
REMARK  9 active torsions:
REMARK  status: ('A' for Active; 'I' for Inactive)
REMARK    1  A    between atoms: C_1  and  O_2
REMARK    2  A    between atoms: O_2  and  C_3
REMARK    3  A    between atoms: C_5  and  C_6
REMARK    4  A    between atoms: C_11  and  O_12
REMARK    5  A    between atoms: O_12  and  C_13
REMARK    6  A    between atoms: C_13  and  C_14
REMARK    7  A    between atoms: C_18  and  O_20
REMARK    8  A    between atoms: O_20  and  C_21
REMARK    9  A    between atoms: C_21  and  C_22
REMARK                            x       y       z     vdW  Elec       q    Type
REMARK                         _______ _______ _______ _____ _____    ______ ____
ROOT
ATOM      1  C   UNL     1      -0.838   2.490  -0.956  0.00  0.00    +0.265 C 
ENDROOT
BRANCH   1   2
ATOM      2  C   UNL     1       0.071   1.911   0.099  0.00  0.00    -0.007 A 
ATOM      3  C   UNL     1      -0.098   2.262   1.447  0.00  0.00    +0.007 A 
ATOM      4  C   UNL     1       0.753   1.737   2.422  0.00  0.00    +0.004 A 
ATOM      5  C   UNL     1       1.787   0.870   2.061  0.00  0.00    +0.045 A 
ATOM      6  C   UNL     1       1.982   0.525   0.710  0.00  0.00    +0.122 A 
ATOM      7  C   UNL     1       1.127   1.057  -0.263  0.00  0.00    +0.052 A 
BRANCH   6   8
ATOM      8  O   UNL     1       3.006  -0.339   0.294  0.00  0.00    -0.483 OA
BRANCH   8   9
ATOM      9  C   UNL     1       3.941  -0.959   1.171  0.00  0.00    +0.324 C 
BRANCH   9  10
ATOM     10  C   UNL     1       4.866  -1.819   0.373  0.00  0.00    +0.248 C 
ATOM     11  N   UNL     1       5.988  -1.245  -0.296  0.00  0.00    -0.327 N 
ATOM     12  O   UNL     1       4.631  -3.051   0.254  0.00  0.00    -0.272 OA
ATOM     13  H   UNL     1       6.627  -1.846  -0.864  0.00  0.00    +0.145 HD
ATOM     14  H   UNL     1       6.183  -0.222  -0.228  0.00  0.00    +0.145 HD
ENDBRANCH   9  10
ENDBRANCH   8   9
ENDBRANCH   6   8
ENDBRANCH   1   2
BRANCH   1  15
ATOM     15  O   UNL     1      -1.209   1.505  -1.922  0.00  0.00    -0.482 OA
BRANCH  15  22
ATOM     16  C   UNL     1      -2.666   0.042  -0.521  0.00  0.00    +0.164 A 
ATOM     17  C   UNL     1      -3.303  -1.208  -0.379  0.00  0.00    +0.068 A 
ATOM     18  C   UNL     1      -3.212  -2.175  -1.384  0.00  0.00    +0.057 A 
ATOM     19  C   UNL     1      -2.487  -1.905  -2.545  0.00  0.00    +0.042 A 
ATOM     20  C   UNL     1      -1.843  -0.675  -2.700  0.00  0.00    +0.087 A 
ATOM     21 CL   UNL     1      -0.922  -0.380  -4.168  0.00  0.00    -0.080 Cl
ATOM     22  C   UNL     1      -1.910   0.304  -1.694  0.00  0.00    +0.181 A 
BRANCH  16  24
ATOM     23  C   UNL     1      -3.480   0.868   1.703  0.00  0.00    +0.277 C 
ATOM     24  O   UNL     1      -2.788   1.029   0.469  0.00  0.00    -0.491 OA
ENDBRANCH  16  24
BRANCH  18  25
ATOM     25  C   UNL     1      -3.871  -3.445  -1.226  0.00  0.00    +0.099 C 
ATOM     26  N   UNL     1      -4.401  -4.466  -1.099  0.00  0.00    -0.191 NA
ENDBRANCH  18  25
ENDBRANCH  15  22
ENDBRANCH   1  15
TORSDOF 8
