REMARK  Name = 
REMARK  8 active torsions:
REMARK  status: ('A' for Active; 'I' for Inactive)
REMARK    1  A    between atoms: C_1  and  O_2
REMARK    2  A    between atoms: O_2  and  C_3
REMARK    3  A    between atoms: C_6  and  C_9
REMARK    4  A    between atoms: C_9  and  C_10
REMARK    5  A    between atoms: C_9  and  N_14
REMARK    6  A    between atoms: C_10  and  C_11
REMARK    7  A    between atoms: C_11  and  O_13
REMARK    8  A    between atoms: C_15  and  C_17
REMARK                            x       y       z     vdW  Elec       q    Type
REMARK                         _______ _______ _______ _____ _____    ______ ____
ROOT
ATOM      1  C   UNL     1       0.267   1.190   1.410  0.00  0.00    +0.114 C 
ENDROOT
BRANCH   1   5
ATOM      2  C   UNL     1       3.646  -0.551  -0.674  0.00  0.00    +0.120 A 
ATOM      3  C   UNL     1       2.592   0.037  -1.398  0.00  0.00    +0.046 A 
ATOM      4  C   UNL     1       1.502   0.597  -0.726  0.00  0.00    +0.009 A 
ATOM      5  C   UNL     1       1.441   0.574   0.678  0.00  0.00    -0.026 A 
ATOM      6  C   UNL     1       2.498  -0.005   1.397  0.00  0.00    +0.009 A 
ATOM      7  C   UNL     1       3.588  -0.565   0.724  0.00  0.00    +0.046 A 
BRANCH   2   9
ATOM      8  C   UNL     1       4.949  -1.185  -2.711  0.00  0.00    +0.277 C 
ATOM      9  O   UNL     1       4.760  -1.128  -1.301  0.00  0.00    -0.495 OA
ENDBRANCH   2   9
ENDBRANCH   1   5
BRANCH   1  10
ATOM     10  N   UNL     1      -0.993   0.693   0.844  0.00  0.00    -0.304 N 
ATOM     11  C   UNL     1      -1.423  -0.666   1.029  0.00  0.00    +0.247 C 
ATOM     12  O   UNL     1      -0.835  -1.399   1.871  0.00  0.00    -0.270 OA
ATOM     13  H   UNL     1      -1.609   1.346   0.311  0.00  0.00    +0.150 HD
BRANCH  11  14
ATOM     14  C   UNL     1      -2.567  -1.212   0.267  0.00  0.00    +0.075 A 
ATOM     15  C   UNL     1      -3.419  -2.152   0.874  0.00  0.00    +0.016 A 
ATOM     16  C   UNL     1      -4.507  -2.680   0.173  0.00  0.00    +0.004 A 
ATOM     17  C   UNL     1      -4.751  -2.284  -1.143  0.00  0.00    +0.041 A 
ATOM     18  C   UNL     1      -3.902  -1.365  -1.765  0.00  0.00    +0.159 A 
ATOM     19  F   UNL     1      -4.131  -1.000  -3.051  0.00  0.00    -0.202 F 
ATOM     20  C   UNL     1      -2.811  -0.831  -1.069  0.00  0.00    +0.170 A 
ATOM     21  F   UNL     1      -1.970   0.015  -1.718  0.00  0.00    -0.202 F 
ENDBRANCH  11  14
ENDBRANCH   1  10
BRANCH   1  22
ATOM     22  C   UNL     1       0.345   2.727   1.329  0.00  0.00    +0.147 C 
BRANCH  22  23
ATOM     23  C   UNL     1      -0.706   3.370   2.182  0.00  0.00    +0.307 C 
ATOM     24  O   UNL     1      -0.527   3.485   3.424  0.00  0.00    -0.251 OA
BRANCH  23  25
ATOM     25  O   UNL     1      -1.893   3.810   1.606  0.00  0.00    -0.481 OA
ATOM     26  H   UNL     1      -2.619   4.234   2.171  0.00  0.00    +0.295 HD
ENDBRANCH  23  25
ENDBRANCH  22  23
ENDBRANCH   1  22
TORSDOF 7
