REMARK  Name = 
REMARK  9 active torsions:
REMARK  status: ('A' for Active; 'I' for Inactive)
REMARK    1  A    between atoms: C_2  and  C_3
REMARK    2  A    between atoms: C_8  and  C_9
REMARK    3  A    between atoms: C_9  and  N_10
REMARK    4  A    between atoms: N_10  and  C_11
REMARK    5  A    between atoms: N_10  and  C_19
REMARK    6  A    between atoms: C_11  and  C_12
REMARK    7  A    between atoms: C_12  and  C_13
REMARK    8  A    between atoms: C_19  and  C_20
REMARK    9  A    between atoms: C_20  and  O_22
REMARK                            x       y       z     vdW  Elec       q    Type
REMARK                         _______ _______ _______ _____ _____    ______ ____
ROOT
ATOM      1 CL   UNL     1       0.688   0.000   0.000  0.00  0.00    -0.145 Cl
ATOM      2  H   UNL     1      -0.688   0.000   0.000  0.00  0.00    +0.145 HD
ENDROOT
TORSDOF 0
REMARK  Name = 
REMARK  9 active torsions:
REMARK  status: ('A' for Active; 'I' for Inactive)
REMARK    1  A    between atoms: C_2  and  C_3
REMARK    2  A    between atoms: C_8  and  C_9
REMARK    3  A    between atoms: C_9  and  N_10
REMARK    4  A    between atoms: N_10  and  C_11
REMARK    5  A    between atoms: N_10  and  C_19
REMARK    6  A    between atoms: C_11  and  C_12
REMARK    7  A    between atoms: C_12  and  C_13
REMARK    8  A    between atoms: C_19  and  C_20
REMARK    9  A    between atoms: C_20  and  O_22
REMARK                            x       y       z     vdW  Elec       q    Type
REMARK                         _______ _______ _______ _____ _____    ______ ____
ROOT
ATOM      1  N   UNL     1      -0.984   1.382   0.075  0.00  0.00    -0.288 NA
ENDROOT
BRANCH   1   2
ATOM      2  C   UNL     1      -1.645   0.696   1.209  0.00  0.00    +0.120 C 
BRANCH   2   9
ATOM      3  C   UNL     1      -3.733  -0.053  -0.820  0.00  0.00    +0.044 C 
ATOM      4  C   UNL     1      -2.940  -1.101  -0.082  0.00  0.00    -0.046 A 
ATOM      5  C   UNL     1      -3.166  -2.459  -0.368  0.00  0.00    +0.003 A 
ATOM      6  C   UNL     1      -2.441  -3.454   0.289  0.00  0.00    +0.000 A 
ATOM      7  C   UNL     1      -1.480  -3.108   1.238  0.00  0.00    +0.000 A 
ATOM      8  C   UNL     1      -1.242  -1.766   1.535  0.00  0.00    +0.005 A 
ATOM      9  C   UNL     1      -1.963  -0.749   0.884  0.00  0.00    -0.030 A 
ENDBRANCH   2   9
ENDBRANCH   1   2
BRANCH   1  10
ATOM     10  C   UNL     1       0.299   0.755  -0.346  0.00  0.00    +0.090 C 
BRANCH  10  11
ATOM     11  C   UNL     1       1.431   0.834   0.699  0.00  0.00    +0.050 C 
BRANCH  11  12
ATOM     12  C   UNL     1       2.630   0.060   0.219  0.00  0.00    -0.046 A 
ATOM     13  C   UNL     1       3.616   0.689  -0.560  0.00  0.00    +0.003 A 
ATOM     14  C   UNL     1       4.709  -0.041  -1.035  0.00  0.00    +0.000 A 
ATOM     15  C   UNL     1       4.821  -1.404  -0.746  0.00  0.00    +0.000 A 
ATOM     16  C   UNL     1       3.837  -2.040   0.015  0.00  0.00    +0.000 A 
ATOM     17  C   UNL     1       2.741  -1.314   0.493  0.00  0.00    +0.003 A 
ENDBRANCH  11  12
ENDBRANCH  10  11
ENDBRANCH   1  10
BRANCH   1  18
ATOM     18  C   UNL     1      -0.883   2.835   0.328  0.00  0.00    +0.205 C 
BRANCH  18  19
ATOM     19  C   UNL     1      -0.493   3.577  -0.912  0.00  0.00    +0.319 C 
ATOM     20  O   UNL     1       0.625   4.155  -0.979  0.00  0.00    -0.250 OA
BRANCH  19  21
ATOM     21  O   UNL     1      -1.360   3.611  -2.000  0.00  0.00    -0.480 OA
ATOM     22  H   UNL     1      -1.108   4.100  -2.850  0.00  0.00    +0.295 HD
ENDBRANCH  19  21
ENDBRANCH  18  19
ENDBRANCH   1  18
TORSDOF 8
