REMARK  Name = 
REMARK  10 active torsions:
REMARK  status: ('A' for Active; 'I' for Inactive)
REMARK    1  A    between atoms: C_1  and  C_2
REMARK    2  A    between atoms: N_4  and  C_5
REMARK    3  A    between atoms: C_8  and  C_11
REMARK    4  A    between atoms: N_13  and  C_14
REMARK    5  A    between atoms: N_13  and  C_21
REMARK    6  A    between atoms: C_14  and  C_15
REMARK    7  A    between atoms: C_21  and  C_22
REMARK    8  A    between atoms: C_22  and  C_23
REMARK    9  A    between atoms: C_22  and  C_24
REMARK   10  A    between atoms: C_24  and  O_26
REMARK                            x       y       z     vdW  Elec       q    Type
REMARK                         _______ _______ _______ _____ _____    ______ ____
ROOT
ATOM      1  C   UNL     1      -0.070   2.053  -0.096  0.00  0.00    +0.247 C 
ATOM      2  O   UNL     1      -0.055   3.271   0.232  0.00  0.00    -0.270 OA
ATOM      3  N   UNL     1      -1.185   1.529  -0.846  0.00  0.00    -0.292 N 
ENDROOT
BRANCH   1   7
ATOM      4  C   UNL     1       3.264  -0.432   0.981  0.00  0.00    +0.033 A 
ATOM      5  C   UNL     1       1.960  -0.946   0.997  0.00  0.00    +0.024 A 
ATOM      6  C   UNL     1       0.873  -0.136   0.658  0.00  0.00    +0.015 A 
ATOM      7  C   UNL     1       1.075   1.196   0.271  0.00  0.00    +0.037 A 
ATOM      8  C   UNL     1       2.379   1.714   0.251  0.00  0.00    +0.015 A 
ATOM      9  C   UNL     1       3.467   0.904   0.592  0.00  0.00    +0.024 A 
BRANCH   4  13
ATOM     10  C   UNL     1       6.740  -1.789   2.052  0.00  0.00    +0.109 C 
ATOM     11  C   UNL     1       5.577  -0.857   1.941  0.00  0.00    +0.214 C 
ATOM     12  O   UNL     1       5.644   0.279   2.483  0.00  0.00    -0.276 OA
ATOM     13  N   UNL     1       4.367  -1.297   1.306  0.00  0.00    -0.286 N 
ATOM     14  H   UNL     1       4.252  -2.323   1.139  0.00  0.00    +0.155 HD
ENDBRANCH   4  13
ENDBRANCH   1   7
BRANCH   3  15
ATOM     15  C   UNL     1      -2.543   1.960  -0.474  0.00  0.00    +0.143 C 
BRANCH  15  16
ATOM     16  C   UNL     1      -3.109   1.049   0.582  0.00  0.00    -0.030 A 
ATOM     17  C   UNL     1      -4.154   0.159   0.275  0.00  0.00    +0.005 A 
ATOM     18  C   UNL     1      -4.654  -0.706   1.252  0.00  0.00    +0.000 A 
ATOM     19  C   UNL     1      -4.120  -0.687   2.544  0.00  0.00    +0.000 A 
ATOM     20  C   UNL     1      -3.089   0.201   2.861  0.00  0.00    +0.000 A 
ATOM     21  C   UNL     1      -2.585   1.067   1.886  0.00  0.00    +0.005 A 
ENDBRANCH  15  16
ENDBRANCH   3  15
BRANCH   3  22
ATOM     22  C   UNL     1      -0.914   1.015  -2.201  0.00  0.00    +0.122 C 
BRANCH  22  23
ATOM     23  C   UNL     1      -1.768  -0.218  -2.576  0.00  0.00    +0.112 C 
ATOM     24  C   UNL     1      -1.479  -1.423  -1.675  0.00  0.00    +0.021 C 
BRANCH  23  25
ATOM     25  C   UNL     1      -1.522  -0.586  -4.014  0.00  0.00    +0.309 C 
ATOM     26  O   UNL     1      -0.379  -0.966  -4.390  0.00  0.00    -0.251 OA
BRANCH  25  27
ATOM     27  O   UNL     1      -2.560  -0.499  -4.937  0.00  0.00    -0.480 OA
ATOM     28  H   UNL     1      -2.412  -0.743  -5.909  0.00  0.00    +0.295 HD
ENDBRANCH  25  27
ENDBRANCH  23  25
ENDBRANCH  22  23
ENDBRANCH   3  22
TORSDOF 8
