REMARK  Name = 
REMARK  6 active torsions:
REMARK  status: ('A' for Active; 'I' for Inactive)
REMARK    1  A    between atoms: C_1  and  C_2
REMARK    2  A    between atoms: C_6  and  C_8
REMARK    3  A    between atoms: N_10  and  C_11
REMARK    4  A    between atoms: C_15  and  O_17
REMARK    5  A    between atoms: O_17  and  C_18
REMARK    6  A    between atoms: C_18  and  C_19
REMARK                            x       y       z     vdW  Elec       q    Type
REMARK                         _______ _______ _______ _____ _____    ______ ____
ROOT
ATOM      1  C   UNL     1       0.561  -1.761  -0.638  0.00  0.00    +0.037 A 
ATOM      2  C   UNL     1       0.372  -3.016  -1.232  0.00  0.00    +0.023 A 
ATOM      3  C   UNL     1       1.468  -3.760  -1.675  0.00  0.00    +0.005 A 
ATOM      4  C   UNL     1       2.763  -3.263  -1.516  0.00  0.00    +0.046 A 
ATOM      5  C   UNL     1       2.978  -2.023  -0.904  0.00  0.00    +0.123 A 
ATOM      6  C   UNL     1       1.870  -1.278  -0.453  0.00  0.00    +0.069 A 
ENDROOT
BRANCH   1   9
ATOM      7  C   UNL     1      -0.695   0.412  -0.264  0.00  0.00    +0.248 C 
ATOM      8  O   UNL     1       0.185   1.076  -0.877  0.00  0.00    -0.270 OA
ATOM      9  N   UNL     1      -0.581  -1.022  -0.174  0.00  0.00    -0.281 N 
ATOM     10  H   UNL     1      -1.380  -1.576   0.203  0.00  0.00    +0.155 HD
BRANCH   7  16
ATOM     11  C   UNL     1      -5.535   0.602   1.127  0.00  0.00    +0.044 C 
ATOM     12  C   UNL     1      -4.175   1.232   1.049  0.00  0.00    -0.050 A 
ATOM     13  C   UNL     1      -3.982   2.548   1.492  0.00  0.00    +0.003 A 
ATOM     14  C   UNL     1      -2.729   3.152   1.372  0.00  0.00    +0.001 A 
ATOM     15  C   UNL     1      -1.663   2.452   0.802  0.00  0.00    +0.013 A 
ATOM     16  C   UNL     1      -1.837   1.132   0.348  0.00  0.00    +0.037 A 
ATOM     17  C   UNL     1      -3.107   0.535   0.461  0.00  0.00    +0.016 A 
ENDBRANCH   7  16
ENDBRANCH   1   9
BRANCH   5  18
ATOM     18  O   UNL     1       4.301  -1.574  -0.761  0.00  0.00    -0.483 OA
BRANCH  18  19
ATOM     19  C   UNL     1       4.690  -0.307  -0.230  0.00  0.00    +0.324 C 
BRANCH  19  20
ATOM     20  C   UNL     1       4.327   0.798  -1.177  0.00  0.00    +0.248 C 
ATOM     21  N   UNL     1       3.572   1.923  -0.728  0.00  0.00    -0.327 N 
ATOM     22  O   UNL     1       4.707   0.740  -2.377  0.00  0.00    -0.272 OA
ATOM     23  H   UNL     1       3.256   1.995   0.264  0.00  0.00    +0.145 HD
ATOM     24  H   UNL     1       3.321   2.688  -1.394  0.00  0.00    +0.145 HD
ENDBRANCH  19  20
ENDBRANCH  18  19
ENDBRANCH   5  18
TORSDOF 5
