REMARK  Name = 
REMARK  7 active torsions:
REMARK  status: ('A' for Active; 'I' for Inactive)
REMARK    1  A    between atoms: C_2  and  C_16
REMARK    2  A    between atoms: N_3  and  C_4
REMARK    3  A    between atoms: C_4  and  C_5
REMARK    4  A    between atoms: C_10  and  O_11
REMARK    5  A    between atoms: O_11  and  C_12
REMARK    6  A    between atoms: C_12  and  C_13
REMARK    7  A    between atoms: C_18  and  C_19
REMARK                            x       y       z     vdW  Elec       q    Type
REMARK                         _______ _______ _______ _____ _____    ______ ____
ROOT
ATOM      1  O   UNL     1      -1.071  -0.279   1.007  0.00  0.00    -0.275 OA
ATOM      2  C   UNL     1      -1.550  -1.312   0.468  0.00  0.00    +0.217 C 
ATOM      3  N   UNL     1      -0.801  -2.019  -0.530  0.00  0.00    -0.311 N 
ATOM      4  H   UNL     1      -1.184  -2.915  -0.907  0.00  0.00    +0.149 HD
ENDROOT
BRANCH   2   5
ATOM      5  C   UNL     1      -2.897  -1.838   0.894  0.00  0.00    +0.083 C 
ATOM      6  C   UNL     1      -3.835  -0.815   1.524  0.00  0.00    +0.022 C 
ATOM      7  C   UNL     1      -4.128  -1.342   0.121  0.00  0.00    +0.033 C 
BRANCH   7   8
ATOM      8  C   UNL     1      -3.903  -0.365  -1.009  0.00  0.00    -0.025 A 
ATOM      9  C   UNL     1      -4.366   0.959  -0.936  0.00  0.00    +0.007 A 
ATOM     10  C   UNL     1      -4.178   1.826  -2.015  0.00  0.00    +0.020 A 
ATOM     11  C   UNL     1      -3.554   1.354  -3.171  0.00  0.00    +0.111 A 
ATOM     12  N   UNL     1      -3.150   0.059  -3.245  0.00  0.00    -0.263 NA
ATOM     13  C   UNL     1      -3.319  -0.804  -2.207  0.00  0.00    +0.114 A 
ENDBRANCH   7   8
ENDBRANCH   2   5
BRANCH   3  14
ATOM     14  C   UNL     1       0.445  -1.503  -1.092  0.00  0.00    +0.143 C 
BRANCH  14  15
ATOM     15  C   UNL     1       1.556  -1.586  -0.073  0.00  0.00    +0.011 A 
ATOM     16  C   UNL     1       2.068  -2.847   0.272  0.00  0.00    +0.009 A 
ATOM     17  C   UNL     1       3.073  -2.965   1.233  0.00  0.00    +0.001 A 
ATOM     18  C   UNL     1       3.568  -1.828   1.869  0.00  0.00    +0.004 A 
ATOM     19  C   UNL     1       3.067  -0.566   1.540  0.00  0.00    +0.046 A 
ATOM     20  C   UNL     1       2.063  -0.428   0.561  0.00  0.00    +0.125 A 
BRANCH  20  21
ATOM     21  O   UNL     1       1.542   0.828   0.202  0.00  0.00    -0.491 OA
BRANCH  21  22
ATOM     22  C   UNL     1       2.022   2.092   0.657  0.00  0.00    +0.232 C 
BRANCH  22  23
ATOM     23  C   UNL     1       3.393   2.393   0.037  0.00  0.00    +0.027 C 
ATOM     24  C   UNL     1       3.856   3.831   0.224  0.00  0.00    +0.007 C 
ATOM     25  C   UNL     1       4.524   2.715   1.006  0.00  0.00    +0.007 C 
ENDBRANCH  22  23
ENDBRANCH  21  22
ENDBRANCH  20  21
ENDBRANCH  14  15
ENDBRANCH   3  14
TORSDOF 7
