REMARK  Name = 
REMARK  9 active torsions:
REMARK  status: ('A' for Active; 'I' for Inactive)
REMARK    1  A    between atoms: C_1  and  C_2
REMARK    2  A    between atoms: C_2  and  C_3
REMARK    3  A    between atoms: N_5  and  S_13
REMARK    4  A    between atoms: N_8  and  C_9
REMARK    5  A    between atoms: C_9  and  C_10
REMARK    6  A    between atoms: C_10  and  C_11
REMARK    7  A    between atoms: C_10  and  O_12
REMARK    8  A    between atoms: S_13  and  C_16
REMARK    9  A    between atoms: C_19  and  C_21
REMARK                            x       y       z     vdW  Elec       q    Type
REMARK                         _______ _______ _______ _____ _____    ______ ____
ROOT
ATOM      1  S   UNL     1      -0.411  -2.125   2.178  0.00  0.00    +0.062 S 
ATOM      2  O   UNL     1      -0.524  -3.574   1.795  0.00  0.00    -0.153 OA
ATOM      3  O   UNL     1      -0.725  -1.997   3.643  0.00  0.00    -0.153 OA
ENDROOT
BRANCH   1   6
ATOM      4  C   UNL     1      -2.371  -0.594  -0.998  0.00  0.00    +0.072 C 
ATOM      5  C   UNL     1      -1.217  -1.228  -0.177  0.00  0.00    +0.128 C 
ATOM      6  N   UNL     1      -1.555  -1.187   1.252  0.00  0.00    -0.174 NA
ATOM      7  C   UNL     1      -1.607   0.202   1.749  0.00  0.00    +0.125 C 
ATOM      8  C   UNL     1      -2.148   1.179   0.689  0.00  0.00    +0.102 C 
ATOM      9  N   UNL     1      -3.066   0.488  -0.242  0.00  0.00    -0.294 NA
BRANCH   4  11
ATOM     10  C   UNL     1      -4.129  -2.336  -0.272  0.00  0.00    +0.005 C 
ATOM     11  C   UNL     1      -3.389  -1.677  -1.440  0.00  0.00    +0.017 C 
ENDBRANCH   4  11
BRANCH   9  12
ATOM     12  C   UNL     1      -3.716   1.468  -1.148  0.00  0.00    +0.115 C 
BRANCH  12  13
ATOM     13  C   UNL     1      -5.029   1.972  -0.533  0.00  0.00    +0.125 C 
ATOM     14  C   UNL     1      -5.690   3.006  -1.448  0.00  0.00    +0.039 C 
BRANCH  13  15
ATOM     15  O   UNL     1      -5.899   0.886  -0.342  0.00  0.00    -0.391 OA
ATOM     16  H   UNL     1      -6.576   1.174   0.324  0.00  0.00    +0.210 HD
ENDBRANCH  13  15
ENDBRANCH  12  13
ENDBRANCH   9  12
ENDBRANCH   1   6
BRANCH   1  17
ATOM     17  C   UNL     1       1.237  -1.585   1.893  0.00  0.00    +0.123 A 
ATOM     18  C   UNL     1       1.955  -0.704   2.673  0.00  0.00    +0.112 A 
ATOM     19  N   UNL     1       3.174  -0.519   2.136  0.00  0.00    -0.355 N 
ATOM     20  C   UNL     1       3.230  -1.269   1.016  0.00  0.00    +0.104 A 
ATOM     21  C   UNL     1       2.046  -1.960   0.841  0.00  0.00    +0.060 A 
ATOM     22  H   UNL     1       3.938   0.056   2.552  0.00  0.00    +0.166 HD
BRANCH  20  23
ATOM     23  C   UNL     1       4.410  -1.384   0.139  0.00  0.00    +0.263 C 
ATOM     24  O   UNL     1       4.628  -2.484  -0.436  0.00  0.00    -0.268 OA
ATOM     25  N   UNL     1       5.295  -0.274  -0.098  0.00  0.00    -0.296 N 
ATOM     26  C   UNL     1       6.562  -0.428  -0.794  0.00  0.00    +0.108 C 
ATOM     27  C   UNL     1       7.112   0.980  -0.967  0.00  0.00    +0.020 C 
ATOM     28  C   UNL     1       5.917   1.911  -0.784  0.00  0.00    +0.020 C 
ATOM     29  C   UNL     1       4.907   1.122   0.038  0.00  0.00    +0.108 C 
ENDBRANCH  20  23
ENDBRANCH   1  17
TORSDOF 7
