REMARK  Name = 
REMARK  3 active torsions:
REMARK  status: ('A' for Active; 'I' for Inactive)
REMARK    1  A    between atoms: S_2  and  N_4
REMARK    2  A    between atoms: S_2  and  N_10
REMARK    3  A    between atoms: C_14  and  C_16
REMARK                            x       y       z     vdW  Elec       q    Type
REMARK                         _______ _______ _______ _____ _____    ______ ____
ROOT
ATOM      1  N   UNL     1      -0.018  -0.708  -0.082  0.00  0.00    -0.166 NA
ATOM      2  C   UNL     1      -0.295  -1.298   1.242  0.00  0.00    +0.110 C 
ATOM      3  C   UNL     1      -1.344  -0.506   2.037  0.00  0.00    +0.018 C 
ATOM      4  C   UNL     1      -2.625  -0.340   1.222  0.00  0.00    +0.011 C 
ATOM      5  C   UNL     1      -2.309   0.323  -0.124  0.00  0.00    +0.038 C 
ATOM      6  C   UNL     1      -1.236  -0.486  -0.885  0.00  0.00    +0.118 C 
ENDROOT
BRANCH   5   7
ATOM      7  C   UNL     1      -3.556   0.463  -0.957  0.00  0.00    -0.006 A 
ATOM      8  C   UNL     1      -4.094   1.632  -1.457  0.00  0.00    +0.138 A 
ATOM      9  N   UNL     1      -5.202   1.341  -2.166  0.00  0.00    -0.182 NA
ATOM     10  N   UNL     1      -5.375   0.029  -2.128  0.00  0.00    -0.284 N 
ATOM     11  C   UNL     1      -4.394  -0.539  -1.405  0.00  0.00    +0.108 A 
ATOM     12  H   UNL     1      -6.160  -0.474  -2.597  0.00  0.00    +0.188 HD
ENDBRANCH   5   7
BRANCH   1  14
ATOM     13  O   UNL     1       0.411   1.876  -0.685  0.00  0.00    -0.141 OA
ATOM     14  S   UNL     1       1.048   0.687  -0.021  0.00  0.00    +0.100 S 
ATOM     15  O   UNL     1       1.380   1.050   1.402  0.00  0.00    -0.141 OA
BRANCH  14  16
ATOM     16  N   UNL     1       2.521   0.298  -0.874  0.00  0.00    -0.162 NA
ATOM     17  C   UNL     1       3.059  -0.984  -0.383  0.00  0.00    +0.138 C 
ATOM     18  C   UNL     1       4.549  -1.116  -0.739  0.00  0.00    +0.177 C 
ATOM     19  O   UNL     1       5.374  -0.089  -0.199  0.00  0.00    -0.377 OA
ATOM     20  C   UNL     1       4.663   1.084   0.166  0.00  0.00    +0.177 C 
ATOM     21  C   UNL     1       3.500   1.406  -0.789  0.00  0.00    +0.138 C 
ENDBRANCH  14  16
ENDBRANCH   1  14
TORSDOF 3
