REMARK  Name = 
REMARK  11 active torsions:
REMARK  status: ('A' for Active; 'I' for Inactive)
REMARK    1  A    between atoms: C_1  and  O_2
REMARK    2  A    between atoms: O_2  and  C_3
REMARK    3  A    between atoms: C_6  and  C_11
REMARK    4  A    between atoms: C_8  and  O_9
REMARK    5  A    between atoms: O_9  and  C_10
REMARK    6  A    between atoms: C_11  and  C_12
REMARK    7  A    between atoms: N_14  and  C_15
REMARK    8  A    between atoms: C_15  and  C_16
REMARK    9  A    between atoms: C_15  and  C_20
REMARK   10  A    between atoms: C_16  and  C_17
REMARK   11  A    between atoms: C_17  and  O_19
REMARK                            x       y       z     vdW  Elec       q    Type
REMARK                         _______ _______ _______ _____ _____    ______ ____
ROOT
ATOM      1  C   UNL     1      -0.228  -0.591   2.114  0.00  0.00    +0.218 C 
ATOM      2  O   UNL     1      -0.086  -1.796   2.457  0.00  0.00    -0.275 OA
ATOM      3  N   UNL     1      -1.348  -0.190   1.313  0.00  0.00    -0.308 N 
ATOM      4  H   UNL     1      -1.494   0.831   1.135  0.00  0.00    +0.149 HD
ENDROOT
BRANCH   1   5
ATOM      5  C   UNL     1       0.818   0.412   2.491  0.00  0.00    +0.131 C 
BRANCH   5   9
ATOM      6  C   UNL     1       3.475   0.945  -0.874  0.00  0.00    +0.161 A 
ATOM      7  C   UNL     1       2.356   1.784  -0.709  0.00  0.00    +0.049 A 
ATOM      8  C   UNL     1       1.504   1.618   0.384  0.00  0.00    +0.008 A 
ATOM      9  C   UNL     1       1.759   0.620   1.336  0.00  0.00    -0.035 A 
ATOM     10  C   UNL     1       2.863  -0.229   1.166  0.00  0.00    +0.053 A 
ATOM     11  C   UNL     1       3.727  -0.069   0.065  0.00  0.00    +0.162 A 
BRANCH   6  13
ATOM     12  C   UNL     1       4.241   2.075  -2.972  0.00  0.00    +0.277 C 
ATOM     13  O   UNL     1       4.359   1.085  -1.956  0.00  0.00    -0.491 OA
ENDBRANCH   6  13
BRANCH  11  14
ATOM     14  O   UNL     1       4.843  -0.898  -0.132  0.00  0.00    -0.491 OA
ATOM     15  C   UNL     1       5.203  -1.983   0.719  0.00  0.00    +0.277 C 
ENDBRANCH  11  14
ENDBRANCH   5   9
ENDBRANCH   1   5
BRANCH   3  16
ATOM     16  C   UNL     1      -2.304  -1.152   0.752  0.00  0.00    +0.114 C 
BRANCH  16  17
ATOM     17  C   UNL     1      -2.806  -0.661  -0.605  0.00  0.00    -0.027 A 
ATOM     18  C   UNL     1      -1.851  -0.267  -1.565  0.00  0.00    +0.008 A 
ATOM     19  C   UNL     1      -2.245   0.149  -2.839  0.00  0.00    +0.038 A 
ATOM     20  C   UNL     1      -3.597   0.166  -3.182  0.00  0.00    +0.123 A 
ATOM     21  F   UNL     1      -3.977   0.564  -4.420  0.00  0.00    -0.205 F 
ATOM     22  C   UNL     1      -4.557  -0.240  -2.253  0.00  0.00    +0.038 A 
ATOM     23  C   UNL     1      -4.169  -0.659  -0.977  0.00  0.00    +0.008 A 
ENDBRANCH  16  17
BRANCH  16  24
ATOM     24  C   UNL     1      -3.383  -1.489   1.809  0.00  0.00    +0.147 C 
BRANCH  24  25
ATOM     25  C   UNL     1      -4.050  -0.280   2.409  0.00  0.00    +0.307 C 
ATOM     26  O   UNL     1      -4.403  -0.304   3.619  0.00  0.00    -0.251 OA
BRANCH  25  27
ATOM     27  O   UNL     1      -4.323   0.845   1.635  0.00  0.00    -0.481 OA
ATOM     28  H   UNL     1      -4.785   1.655   2.036  0.00  0.00    +0.295 HD
ENDBRANCH  25  27
ENDBRANCH  24  25
ENDBRANCH  16  24
ENDBRANCH   3  16
TORSDOF 9
