REMARK  Name = 
REMARK  8 active torsions:
REMARK  status: ('A' for Active; 'I' for Inactive)
REMARK    1  A    between atoms: C_1  and  C_2
REMARK    2  A    between atoms: C_4  and  C_15
REMARK    3  A    between atoms: C_6  and  S_9
REMARK    4  A    between atoms: C_7  and  C_8
REMARK    5  A    between atoms: S_9  and  N_12
REMARK    6  A    between atoms: N_12  and  C_13
REMARK    7  A    between atoms: N_12  and  C_14
REMARK    8  A    between atoms: C_21  and  C_22
REMARK                            x       y       z     vdW  Elec       q    Type
REMARK                         _______ _______ _______ _____ _____    ______ ____
ROOT
ATOM      1  C   UNL     1       0.214   1.064  -0.468  0.00  0.00    +0.247 C 
ATOM      2  O   UNL     1       0.699   1.612  -1.495  0.00  0.00    -0.270 OA
ATOM      3  N   UNL     1       0.789   1.338   0.823  0.00  0.00    -0.290 N 
ATOM      4  C   UNL     1       0.023   1.328   2.060  0.00  0.00    +0.109 C 
ATOM      5  C   UNL     1       0.989   1.769   3.152  0.00  0.00    +0.021 C 
ATOM      6  C   UNL     1       2.176   2.408   2.435  0.00  0.00    +0.029 C 
ATOM      7  C   UNL     1       2.122   1.901   0.991  0.00  0.00    +0.107 C 
ENDROOT
BRANCH   7   8
ATOM      8  C   UNL     1       3.183   0.853   0.723  0.00  0.00    -0.023 A 
ATOM      9  C   UNL     1       3.068  -0.448   1.255  0.00  0.00    +0.009 A 
ATOM     10  C   UNL     1       4.066  -1.400   1.022  0.00  0.00    +0.050 A 
ATOM     11  C   UNL     1       5.186  -1.062   0.259  0.00  0.00    +0.162 A 
ATOM     12  O   UNL     1       6.180  -2.008  -0.011  0.00  0.00    -0.485 OA
ATOM     13  C   UNL     1       7.176  -1.767  -1.008  0.00  0.00    +0.270 C 
ATOM     14  C   UNL     1       7.617  -0.298  -0.974  0.00  0.00    +0.270 C 
ATOM     15  O   UNL     1       6.477   0.564  -0.969  0.00  0.00    -0.485 OA
ATOM     16  C   UNL     1       5.326   0.237  -0.246  0.00  0.00    +0.162 A 
ATOM     17  C   UNL     1       4.327   1.188  -0.024  0.00  0.00    +0.055 A 
ENDBRANCH   7   8
BRANCH   1  21
ATOM     18  C   UNL     1      -1.959  -3.305   0.583  0.00  0.00    +0.044 C 
ATOM     19  C   UNL     1      -2.021  -1.972  -0.121  0.00  0.00    -0.045 A 
ATOM     20  C   UNL     1      -0.938  -1.092   0.020  0.00  0.00    +0.016 A 
ATOM     21  C   UNL     1      -0.934   0.151  -0.619  0.00  0.00    +0.039 A 
ATOM     22  C   UNL     1      -2.007   0.505  -1.440  0.00  0.00    +0.042 A 
ATOM     23  C   UNL     1      -3.111  -0.347  -1.593  0.00  0.00    +0.109 A 
ATOM     24  C   UNL     1      -3.148  -1.583  -0.895  0.00  0.00    -0.021 A 
ATOM     25  C   UNL     1      -4.338  -2.508  -1.031  0.00  0.00    +0.046 C 
BRANCH  23  26
ATOM     26  S   UNL     1      -4.439   0.187  -2.642  0.00  0.00    +0.061 S 
ATOM     27  O   UNL     1      -4.800  -0.927  -3.585  0.00  0.00    -0.153 OA
ATOM     28  O   UNL     1      -4.005   1.373  -3.462  0.00  0.00    -0.153 OA
BRANCH  26  29
ATOM     29  N   UNL     1      -5.826   0.618  -1.671  0.00  0.00    -0.183 NA
ATOM     30  C   UNL     1      -5.467   1.714  -0.762  0.00  0.00    +0.131 C 
ATOM     31  C   UNL     1      -6.927   1.031  -2.548  0.00  0.00    +0.131 C 
ENDBRANCH  26  29
ENDBRANCH  23  26
ENDBRANCH   1  21
TORSDOF 4
