REMARK  Name = 
REMARK  6 active torsions:
REMARK  status: ('A' for Active; 'I' for Inactive)
REMARK    1  A    between atoms: C_1  and  N_2
REMARK    2  A    between atoms: N_2  and  C_3
REMARK    3  A    between atoms: C_4  and  C_6
REMARK    4  A    between atoms: C_9  and  O_12
REMARK    5  A    between atoms: O_12  and  C_13
REMARK    6  A    between atoms: C_13  and  C_14
REMARK                            x       y       z     vdW  Elec       q    Type
REMARK                         _______ _______ _______ _____ _____    ______ ____
ROOT
ATOM      1  C   UNL     1      -2.344  -0.621  -0.351  0.00  0.00    +0.037 A 
ATOM      2  C   UNL     1      -1.516  -0.678  -1.483  0.00  0.00    +0.016 A 
ATOM      3  C   UNL     1      -0.131  -0.532  -1.356  0.00  0.00    +0.046 A 
ATOM      4  C   UNL     1       0.449  -0.340  -0.088  0.00  0.00    +0.121 A 
ATOM      5  C   UNL     1      -0.377  -0.306   1.041  0.00  0.00    +0.046 A 
ATOM      6  C   UNL     1      -1.762  -0.452   0.915  0.00  0.00    +0.016 A 
ENDROOT
BRANCH   1  10
ATOM      7  C   UNL     1      -6.080  -0.516   0.520  0.00  0.00    +0.132 C 
ATOM      8  N   UNL     1      -4.740   0.013   0.252  0.00  0.00    -0.304 N 
ATOM      9  C   UNL     1      -4.415   1.401   0.596  0.00  0.00    +0.132 C 
ATOM     10  C   UNL     1      -3.805  -0.793  -0.493  0.00  0.00    +0.246 C 
ATOM     11  O   UNL     1      -4.239  -1.665  -1.296  0.00  0.00    -0.270 OA
ENDBRANCH   1  10
BRANCH   4  12
ATOM     12  O   UNL     1       1.831  -0.186   0.093  0.00  0.00    -0.487 OA
BRANCH  12  13
ATOM     13  C   UNL     1       2.788  -0.199  -0.962  0.00  0.00    +0.266 C 
BRANCH  13  14
ATOM     14  C   UNL     1       4.158   0.003  -0.386  0.00  0.00    +0.008 A 
ATOM     15  C   UNL     1       4.667   1.295  -0.191  0.00  0.00    +0.010 A 
ATOM     16  C   UNL     1       5.928   1.470   0.382  0.00  0.00    +0.020 A 
ATOM     17  C   UNL     1       6.665   0.349   0.768  0.00  0.00    +0.111 A 
ATOM     18  N   UNL     1       6.152  -0.898   0.591  0.00  0.00    -0.263 NA
ATOM     19  C   UNL     1       4.926  -1.094   0.033  0.00  0.00    +0.117 A 
ENDBRANCH  13  14
ENDBRANCH  12  13
ENDBRANCH   4  12
TORSDOF 4
