REMARK  Name = 
REMARK  6 active torsions:
REMARK  status: ('A' for Active; 'I' for Inactive)
REMARK    1  A    between atoms: C_1  and  N_2
REMARK    2  A    between atoms: N_2  and  C_3
REMARK    3  A    between atoms: C_3  and  C_4
REMARK    4  A    between atoms: C_10  and  C_12
REMARK    5  A    between atoms: C_17  and  C_18
REMARK    6  A    between atoms: C_18  and  O_20
REMARK                            x       y       z     vdW  Elec       q    Type
REMARK                         _______ _______ _______ _____ _____    ______ ____
ROOT
ATOM      1  C   UNL     1       0.435   0.919  -3.376  0.00  0.00    +0.132 C 
ATOM      2  N   UNL     1       0.032   0.222  -2.150  0.00  0.00    -0.296 N 
ATOM      3  C   UNL     1      -1.117   0.710  -1.421  0.00  0.00    +0.247 C 
ATOM      4  O   UNL     1      -1.658   1.799  -1.756  0.00  0.00    -0.270 OA
ENDROOT
BRANCH   3   5
ATOM      5  C   UNL     1      -1.689  -0.036  -0.282  0.00  0.00    +0.051 A 
ATOM      6  C   UNL     1      -2.320  -1.262  -0.548  0.00  0.00    +0.014 A 
ATOM      7  C   UNL     1      -2.921  -1.990   0.478  0.00  0.00    +0.001 A 
ATOM      8  C   UNL     1      -2.910  -1.497   1.781  0.00  0.00    +0.001 A 
ATOM      9  C   UNL     1      -2.296  -0.275   2.063  0.00  0.00    +0.016 A 
ATOM     10  C   UNL     1      -1.674   0.474   1.045  0.00  0.00    +0.071 A 
BRANCH  10  11
ATOM     11  C   UNL     1      -0.991   1.744   1.411  0.00  0.00    +0.338 C 
ATOM     12  O   UNL     1      -1.258   2.311   2.505  0.00  0.00    -0.245 OA
BRANCH  11  13
ATOM     13  O   UNL     1      -0.030   2.309   0.578  0.00  0.00    -0.477 OA
ATOM     14  H   UNL     1       0.448   3.163   0.836  0.00  0.00    +0.295 HD
ENDBRANCH  11  13
ENDBRANCH  10  11
ENDBRANCH   3   5
BRANCH   2  15
ATOM     15  C   UNL     1       0.831  -0.914  -1.657  0.00  0.00    +0.142 C 
BRANCH  15  16
ATOM     16  C   UNL     1       1.538  -0.550  -0.378  0.00  0.00    -0.030 A 
ATOM     17  C   UNL     1       2.499   0.474  -0.372  0.00  0.00    +0.005 A 
ATOM     18  C   UNL     1       3.135   0.837   0.819  0.00  0.00    +0.000 A 
ATOM     19  C   UNL     1       2.819   0.178   2.010  0.00  0.00    +0.000 A 
ATOM     20  C   UNL     1       1.872  -0.850   2.011  0.00  0.00    +0.000 A 
ATOM     21  C   UNL     1       1.237  -1.218   0.821  0.00  0.00    +0.005 A 
ENDBRANCH  15  16
ENDBRANCH   2  15
TORSDOF 5
