REMARK  Name = 
REMARK  10 active torsions:
REMARK  status: ('A' for Active; 'I' for Inactive)
REMARK    1  A    between atoms: C_1  and  O_2
REMARK    2  A    between atoms: O_2  and  C_3
REMARK    3  A    between atoms: C_6  and  C_7
REMARK    4  A    between atoms: C_7  and  O_9
REMARK    5  A    between atoms: C_10  and  O_12
REMARK    6  A    between atoms: O_12  and  C_13
REMARK    7  A    between atoms: C_13  and  C_14
REMARK    8  A    between atoms: N_16  and  C_17
REMARK    9  A    between atoms: C_17  and  C_18
REMARK   10  A    between atoms: C_17  and  C_19
REMARK                            x       y       z     vdW  Elec       q    Type
REMARK                         _______ _______ _______ _____ _____    ______ ____
ROOT
ATOM      1  O   UNL     1      -1.382  -0.445  -0.989  0.00  0.00    -0.482 OA
ENDROOT
BRANCH   1   6
ATOM      2  C   UNL     1      -4.722   1.005  -0.170  0.00  0.00    +0.124 A 
ATOM      3  C   UNL     1      -5.533  -0.132  -0.319  0.00  0.00    +0.046 A 
ATOM      4  C   UNL     1      -4.971  -1.356  -0.683  0.00  0.00    +0.022 A 
ATOM      5  C   UNL     1      -3.586  -1.478  -0.904  0.00  0.00    +0.101 A 
ATOM      6  C   UNL     1      -2.763  -0.335  -0.760  0.00  0.00    +0.139 A 
ATOM      7  C   UNL     1      -3.347   0.895  -0.392  0.00  0.00    +0.092 A 
BRANCH   2   9
ATOM      8  C   UNL     1      -6.620   2.514   0.442  0.00  0.00    +0.277 C 
ATOM      9  O   UNL     1      -5.241   2.256   0.196  0.00  0.00    -0.495 OA
ENDBRANCH   2   9
BRANCH   5  10
ATOM     10  C   UNL     1      -3.026  -2.803  -1.282  0.00  0.00    +0.340 C 
ATOM     11  O   UNL     1      -3.795  -3.783  -1.481  0.00  0.00    -0.245 OA
BRANCH  10  12
ATOM     12  O   UNL     1      -1.654  -2.990  -1.419  0.00  0.00    -0.477 OA
ATOM     13  H   UNL     1      -1.273  -3.892  -1.676  0.00  0.00    +0.295 HD
ENDBRANCH  10  12
ENDBRANCH   5  10
ENDBRANCH   1   6
BRANCH   1  14
ATOM     14  C   UNL     1      -0.451   0.632  -0.905  0.00  0.00    +0.324 C 
BRANCH  14  15
ATOM     15  C   UNL     1       0.917   0.130  -1.246  0.00  0.00    +0.251 C 
ATOM     16  O   UNL     1       1.098  -0.460  -2.347  0.00  0.00    -0.272 OA
ATOM     17  N   UNL     1       2.013   0.326  -0.339  0.00  0.00    -0.306 N 
ATOM     18  H   UNL     1       1.820   0.796   0.575  0.00  0.00    +0.149 HD
BRANCH  17  19
ATOM     19  C   UNL     1       3.374  -0.129  -0.645  0.00  0.00    +0.100 C 
ATOM     20  C   UNL     1       4.028   0.796  -1.679  0.00  0.00    +0.033 C 
BRANCH  19  21
ATOM     21  C   UNL     1       4.211  -0.204   0.619  0.00  0.00    -0.027 A 
ATOM     22  C   UNL     1       4.458   0.948   1.392  0.00  0.00    +0.005 A 
ATOM     23  C   UNL     1       5.230   0.868   2.555  0.00  0.00    +0.000 A 
ATOM     24  C   UNL     1       5.766  -0.358   2.957  0.00  0.00    +0.000 A 
ATOM     25  C   UNL     1       5.532  -1.506   2.197  0.00  0.00    +0.000 A 
ATOM     26  C   UNL     1       4.759  -1.432   1.033  0.00  0.00    +0.005 A 
ENDBRANCH  19  21
ENDBRANCH  17  19
ENDBRANCH  14  15
ENDBRANCH   1  14
TORSDOF 8
