REMARK  Name = 
REMARK  6 active torsions:
REMARK  status: ('A' for Active; 'I' for Inactive)
REMARK    1  A    between atoms: C_2  and  C_4
REMARK    2  A    between atoms: C_6  and  N_11
REMARK    3  A    between atoms: C_12  and  C_14
REMARK    4  A    between atoms: C_19  and  O_20
REMARK    5  A    between atoms: O_20  and  C_21
REMARK    6  A    between atoms: C_21  and  C_22
REMARK                            x       y       z     vdW  Elec       q    Type
REMARK                         _______ _______ _______ _____ _____    ______ ____
ROOT
ATOM      1  N   UNL     1       0.665  -0.038   0.280  0.00  0.00    -0.281 N 
ATOM      2  C   UNL     1       0.753   1.192  -0.463  0.00  0.00    +0.252 C 
ATOM      3  O   UNL     1       1.796   1.474  -1.113  0.00  0.00    -0.270 OA
ATOM      4  H   UNL     1      -0.223  -0.252   0.787  0.00  0.00    +0.155 HD
ENDROOT
BRANCH   1   7
ATOM      5  C   UNL     1       4.036  -1.720   0.402  0.00  0.00    +0.073 A 
ATOM      6  C   UNL     1       3.049  -0.716   0.372  0.00  0.00    +0.039 A 
ATOM      7  C   UNL     1       1.686  -1.050   0.287  0.00  0.00    +0.035 A 
ATOM      8  C   UNL     1       1.310  -2.398   0.281  0.00  0.00    +0.026 A 
ATOM      9  C   UNL     1       2.279  -3.402   0.319  0.00  0.00    +0.041 A 
ATOM     10  C   UNL     1       3.635  -3.071   0.376  0.00  0.00    +0.136 A 
ATOM     11  F   UNL     1       4.551  -4.072   0.392  0.00  0.00    -0.205 F 
BRANCH   5  13
ATOM     12  N   UNL     1       5.957  -0.118  -0.034  0.00  0.00    -0.325 N 
ATOM     13  C   UNL     1       5.472  -1.358   0.488  0.00  0.00    +0.244 C 
ATOM     14  O   UNL     1       6.289  -2.154   1.025  0.00  0.00    -0.270 OA
ATOM     15  H   UNL     1       6.962   0.141   0.086  0.00  0.00    +0.145 HD
ATOM     16  H   UNL     1       5.351   0.509  -0.606  0.00  0.00    +0.145 HD
ENDBRANCH   5  13
ENDBRANCH   1   7
BRANCH   2  17
ATOM     17  C   UNL     1      -0.377   2.145  -0.471  0.00  0.00    +0.079 A 
ATOM     18  C   UNL     1      -0.117   3.515  -0.297  0.00  0.00    +0.017 A 
ATOM     19  C   UNL     1      -1.165   4.436  -0.266  0.00  0.00    +0.001 A 
ATOM     20  C   UNL     1      -2.481   4.001  -0.417  0.00  0.00    +0.004 A 
ATOM     21  C   UNL     1      -2.755   2.646  -0.614  0.00  0.00    +0.046 A 
ATOM     22  C   UNL     1      -1.706   1.704  -0.657  0.00  0.00    +0.133 A 
BRANCH  22  23
ATOM     23  O   UNL     1      -1.940   0.342  -0.917  0.00  0.00    -0.491 OA
BRANCH  23  24
ATOM     24  C   UNL     1      -3.214  -0.300  -0.920  0.00  0.00    +0.232 C 
BRANCH  24  25
ATOM     25  C   UNL     1      -3.775  -0.365   0.506  0.00  0.00    +0.027 C 
ATOM     26  C   UNL     1      -4.594  -1.603   0.840  0.00  0.00    +0.007 C 
ATOM     27  C   UNL     1      -3.178  -1.460   1.377  0.00  0.00    +0.007 C 
ENDBRANCH  24  25
ENDBRANCH  23  24
ENDBRANCH  22  23
ENDBRANCH   2  17
TORSDOF 6
