REMARK  Name = 
REMARK  5 active torsions:
REMARK  status: ('A' for Active; 'I' for Inactive)
REMARK    1  A    between atoms: C_1  and  C_2
REMARK    2  A    between atoms: C_2  and  N_11
REMARK    3  A    between atoms: C_7  and  C_8
REMARK    4  A    between atoms: C_8  and  O_10
REMARK    5  A    between atoms: C_12  and  C_14
REMARK                            x       y       z     vdW  Elec       q    Type
REMARK                         _______ _______ _______ _____ _____    ______ ____
ROOT
ATOM      1  N   UNL     1       0.347   0.146   0.670  0.00  0.00    -0.305 N 
ATOM      2  C   UNL     1       1.323  -0.844   0.284  0.00  0.00    +0.245 C 
ATOM      3  O   UNL     1       1.118  -2.064   0.527  0.00  0.00    -0.270 OA
ATOM      4  H   UNL     1       0.673   1.138   0.705  0.00  0.00    +0.150 HD
ENDROOT
BRANCH   2   5
ATOM      5  C   UNL     1       2.592  -0.447  -0.374  0.00  0.00    +0.043 A 
ATOM      6  C   UNL     1       2.692   0.750  -1.103  0.00  0.00    +0.031 A 
ATOM      7  C   UNL     1       3.899   1.087  -1.719  0.00  0.00    +0.086 A 
ATOM      8  N   UNL     1       4.975   0.261  -1.621  0.00  0.00    -0.329 N 
ATOM      9  C   UNL     1       4.907  -0.911  -0.932  0.00  0.00    +0.249 A 
ATOM     10  O   UNL     1       5.918  -1.660  -0.860  0.00  0.00    -0.268 OA
ATOM     11  C   UNL     1       3.716  -1.286  -0.301  0.00  0.00    +0.083 A 
ATOM     12  H   UNL     1       5.867   0.535  -2.091  0.00  0.00    +0.168 HD
ENDBRANCH   2   5
BRANCH   1  14
ATOM     13  C   UNL     1      -1.016  -0.948   2.399  0.00  0.00    +0.032 C 
ATOM     14  C   UNL     1      -1.048  -0.145   1.076  0.00  0.00    +0.045 C 
ATOM     15  C   UNL     1      -1.795   1.202   1.338  0.00  0.00    +0.026 C 
ATOM     16  C   UNL     1      -2.288   1.927   0.064  0.00  0.00    +0.002 C 
ATOM     17  C   UNL     1      -1.679   1.385  -1.232  0.00  0.00    +0.001 C 
ATOM     18  C   UNL     1      -1.866  -0.135  -1.387  0.00  0.00    +0.017 C 
ATOM     19  C   UNL     1      -1.786  -0.936  -0.056  0.00  0.00    +0.121 C 
BRANCH  19  20
ATOM     20  C   UNL     1      -3.159  -1.413   0.373  0.00  0.00    +0.310 C 
ATOM     21  O   UNL     1      -3.312  -2.598   0.774  0.00  0.00    -0.251 OA
BRANCH  20  22
ATOM     22  O   UNL     1      -4.251  -0.550   0.354  0.00  0.00    -0.480 OA
ATOM     23  H   UNL     1      -5.167  -0.864   0.651  0.00  0.00    +0.295 HD
ENDBRANCH  20  22
ENDBRANCH  19  20
ENDBRANCH   1  14
TORSDOF 4
