REMARK  Name = 
REMARK  8 active torsions:
REMARK  status: ('A' for Active; 'I' for Inactive)
REMARK    1  A    between atoms: C_2  and  C_3
REMARK    2  A    between atoms: C_6  and  S_9
REMARK    3  A    between atoms: S_9  and  N_12
REMARK    4  A    between atoms: N_12  and  C_13
REMARK    5  A    between atoms: C_15  and  S_26
REMARK    6  A    between atoms: C_18  and  O_19
REMARK    7  A    between atoms: O_19  and  C_20
REMARK    8  A    between atoms: S_26  and  N_29
REMARK                            x       y       z     vdW  Elec       q    Type
REMARK                         _______ _______ _______ _____ _____    ______ ____
ROOT
ATOM      1  C   UNL     1       1.125  -1.024  -0.955  0.00  0.00    +0.092 A 
ATOM      2  C   UNL     1       0.079  -0.164  -1.340  0.00  0.00    +0.056 A 
ATOM      3  C   UNL     1      -1.255  -0.499  -1.081  0.00  0.00    +0.107 A 
ATOM      4  C   UNL     1      -1.553  -1.697  -0.428  0.00  0.00    +0.032 A 
ATOM      5  C   UNL     1      -0.528  -2.566  -0.054  0.00  0.00    +0.050 A 
ATOM      6  C   UNL     1       0.814  -2.247  -0.328  0.00  0.00    +0.151 A 
ENDROOT
BRANCH   3   7
ATOM      7  S   UNL     1      -2.550   0.609  -1.528  0.00  0.00    +0.061 S 
ATOM      8  O   UNL     1      -3.735  -0.191  -1.993  0.00  0.00    -0.153 OA
ATOM      9  O   UNL     1      -2.096   1.491  -2.659  0.00  0.00    -0.153 OA
BRANCH   7  10
ATOM     10  N   UNL     1      -3.001   1.578  -0.148  0.00  0.00    -0.172 NA
ATOM     11  C   UNL     1      -1.853   2.377   0.305  0.00  0.00    +0.137 C 
ATOM     12  C   UNL     1      -2.262   3.272   1.494  0.00  0.00    +0.177 C 
ATOM     13  O   UNL     1      -3.648   3.192   1.772  0.00  0.00    -0.377 OA
ATOM     14  C   UNL     1      -4.385   3.498   0.605  0.00  0.00    +0.177 C 
ATOM     15  C   UNL     1      -4.126   2.460  -0.506  0.00  0.00    +0.137 C 
ENDBRANCH   7  10
ENDBRANCH   3   7
BRANCH   1  16
ATOM     16  N   UNL     1       2.501  -0.678  -1.205  0.00  0.00    -0.213 N 
ATOM     17  H   UNL     1       3.243  -1.405  -1.101  0.00  0.00    +0.174 HD
BRANCH  16  18
ATOM     18  S   UNL     1       3.041   0.943  -1.508  0.00  0.00    +0.072 S 
ATOM     19  O   UNL     1       2.627   1.349  -2.895  0.00  0.00    -0.150 OA
ATOM     20  O   UNL     1       4.540   0.993  -1.413  0.00  0.00    -0.150 OA
BRANCH  18  24
ATOM     21  C   UNL     1       1.313   3.775   1.630  0.00  0.00    +0.052 A 
ATOM     22  C   UNL     1       1.334   4.155   0.282  0.00  0.00    +0.021 A 
ATOM     23  C   UNL     1       1.857   3.289  -0.683  0.00  0.00    +0.030 A 
ATOM     24  C   UNL     1       2.364   2.037  -0.305  0.00  0.00    +0.109 A 
ATOM     25  C   UNL     1       2.335   1.656   1.043  0.00  0.00    +0.030 A 
ATOM     26  C   UNL     1       1.809   2.521   2.008  0.00  0.00    +0.021 A 
BRANCH  21  28
ATOM     27  N   UNL     1       0.356   5.391   3.423  0.00  0.00    -0.191 NA
ATOM     28  C   UNL     1       0.783   4.671   2.624  0.00  0.00    +0.099 C 
ENDBRANCH  21  28
ENDBRANCH  18  24
ENDBRANCH  16  18
ENDBRANCH   1  16
BRANCH   6  29
ATOM     29  O   UNL     1       1.855  -3.101   0.067  0.00  0.00    -0.454 OA
BRANCH  29  30
ATOM     30  C   UNL     1       1.790  -4.502   0.104  0.00  0.00    +0.129 A 
ATOM     31  C   UNL     1       0.979  -5.234  -0.783  0.00  0.00    +0.046 A 
ATOM     32  C   UNL     1       0.956  -6.631  -0.723  0.00  0.00    +0.004 A 
ATOM     33  C   UNL     1       1.747  -7.306   0.211  0.00  0.00    +0.000 A 
ATOM     34  C   UNL     1       2.569  -6.585   1.080  0.00  0.00    +0.004 A 
ATOM     35  C   UNL     1       2.595  -5.188   1.023  0.00  0.00    +0.046 A 
ENDBRANCH  29  30
ENDBRANCH   6  29
TORSDOF 8
