REMARK  Name = 
REMARK  6 active torsions:
REMARK  status: ('A' for Active; 'I' for Inactive)
REMARK    1  A    between atoms: C_1  and  C_2
REMARK    2  A    between atoms: C_2  and  C_3
REMARK    3  A    between atoms: C_3  and  C_4
REMARK    4  A    between atoms: C_3  and  N_6
REMARK    5  A    between atoms: C_4  and  C_5
REMARK    6  A    between atoms: C_10  and  N_14
REMARK                            x       y       z     vdW  Elec       q    Type
REMARK                         _______ _______ _______ _____ _____    ______ ____
ROOT
ATOM      1  N   UNL     1      -0.361   0.928   0.789  0.00  0.00    -0.311 N 
ATOM      2  C   UNL     1       0.925   0.468   0.354  0.00  0.00    +0.217 A 
ATOM      3  N   UNL     1       1.032  -0.471  -0.622  0.00  0.00    -0.221 NA
ATOM      4  C   UNL     1       2.244  -0.913  -1.041  0.00  0.00    +0.150 A 
ATOM      5  C   UNL     1       3.419  -0.396  -0.479  0.00  0.00    +0.184 A 
ATOM      6  C   UNL     1       3.289   0.559   0.553  0.00  0.00    +0.152 A 
ATOM      7  N   UNL     1       4.424   1.072   1.257  0.00  0.00    -0.341 N 
ATOM      8  N   UNL     1       2.048   0.967   0.932  0.00  0.00    -0.198 NA
ATOM      9  H   UNL     1      -0.392   1.667   1.528  0.00  0.00    +0.149 HD
ATOM     10  H   UNL     1       4.296   1.833   1.960  0.00  0.00    +0.144 HD
ATOM     11  H   UNL     1       5.367   0.633   1.186  0.00  0.00    +0.144 HD
ENDROOT
BRANCH   5  12
ATOM     12  N   UNL     1       4.696  -0.824  -0.979  0.00  0.00    +0.061 N 
ATOM     13  O   UNL     1       4.839  -2.089  -1.501  0.00  0.00    -0.126 OA
ATOM     14  O   UNL     1       5.618   0.002  -1.143  0.00  0.00    -0.126 OA
ENDBRANCH   5  12
BRANCH   1  15
ATOM     15  C   UNL     1      -1.614   0.426   0.210  0.00  0.00    +0.073 C 
BRANCH  15  17
ATOM     16  C   UNL     1      -2.334  -1.964  -0.358  0.00  0.00    +0.006 C 
ATOM     17  C   UNL     1      -1.903  -1.002   0.749  0.00  0.00    +0.019 C 
ENDBRANCH  15  17
BRANCH  15  18
ATOM     18  C   UNL     1      -2.759   1.415   0.530  0.00  0.00    +0.019 C 
ATOM     19  C   UNL     1      -4.062   1.080  -0.194  0.00  0.00    +0.006 C 
ENDBRANCH  15  18
ENDBRANCH   1  15
TORSDOF 4
