REMARK  Name = 
REMARK  12 active torsions:
REMARK  status: ('A' for Active; 'I' for Inactive)
REMARK    1  A    between atoms: C_1  and  O_2
REMARK    2  A    between atoms: O_2  and  C_3
REMARK    3  A    between atoms: C_3  and  C_4
REMARK    4  A    between atoms: C_4  and  O_5
REMARK    5  A    between atoms: O_5  and  C_6
REMARK    6  A    between atoms: C_11  and  C_12
REMARK    7  A    between atoms: N_14  and  C_15
REMARK    8  A    between atoms: C_15  and  C_16
REMARK    9  A    between atoms: C_15  and  C_20
REMARK   10  A    between atoms: C_16  and  O_18
REMARK   11  A    between atoms: O_18  and  C_19
REMARK   12  A    between atoms: C_24  and  C_26
REMARK                            x       y       z     vdW  Elec       q    Type
REMARK                         _______ _______ _______ _____ _____    ______ ____
ROOT
ATOM      1  C   UNL     1      -0.205  -1.903   0.049  0.00  0.00    +0.248 C 
ATOM      2  O   UNL     1      -1.030  -2.124   0.976  0.00  0.00    -0.270 OA
ATOM      3  N   UNL     1      -0.663  -1.497  -1.252  0.00  0.00    -0.295 N 
ATOM      4  H   UNL     1      -0.025  -1.647  -2.065  0.00  0.00    +0.150 HD
ENDROOT
BRANCH   1  10
ATOM      5  C   UNL     1       2.197  -1.212  -0.233  0.00  0.00    +0.133 A 
ATOM      6  C   UNL     1       3.566  -1.463  -0.009  0.00  0.00    +0.046 A 
ATOM      7  C   UNL     1       3.970  -2.551   0.767  0.00  0.00    +0.004 A 
ATOM      8  C   UNL     1       3.019  -3.403   1.325  0.00  0.00    +0.001 A 
ATOM      9  C   UNL     1       1.660  -3.182   1.096  0.00  0.00    +0.017 A 
ATOM     10  C   UNL     1       1.240  -2.103   0.300  0.00  0.00    +0.078 A 
BRANCH   5  11
ATOM     11  O   UNL     1       1.751  -0.091  -0.955  0.00  0.00    -0.489 OA
BRANCH  11  12
ATOM     12  C   UNL     1       2.553   1.013  -1.373  0.00  0.00    +0.257 C 
BRANCH  12  13
ATOM     13  C   UNL     1       2.957   1.881  -0.184  0.00  0.00    +0.200 C 
BRANCH  13  15
ATOM     14  C   UNL     1       2.181   3.182   1.549  0.00  0.00    +0.194 C 
ATOM     15  O   UNL     1       1.799   2.364   0.466  0.00  0.00    -0.380 OA
ENDBRANCH  13  15
ENDBRANCH  12  13
ENDBRANCH  11  12
ENDBRANCH   5  11
ENDBRANCH   1  10
BRANCH   3  16
ATOM     16  C   UNL     1      -1.950  -0.841  -1.516  0.00  0.00    +0.213 C 
BRANCH  16  17
ATOM     17  C   UNL     1      -2.128   0.376  -0.626  0.00  0.00    -0.016 A 
ATOM     18  C   UNL     1      -2.789   0.302   0.615  0.00  0.00    +0.006 A 
ATOM     19  C   UNL     1      -2.884   1.431   1.432  0.00  0.00    +0.001 A 
ATOM     20  C   UNL     1      -2.317   2.642   1.029  0.00  0.00    +0.012 A 
ATOM     21  C   UNL     1      -1.623   2.732  -0.189  0.00  0.00    +0.055 A 
ATOM     22  C   UNL     1      -1.543   1.596  -1.014  0.00  0.00    +0.018 A 
BRANCH  21  23
ATOM     23  C   UNL     1      -1.062   4.058  -0.645  0.00  0.00    +0.417 C 
ATOM     24  F   UNL     1      -0.573   4.773   0.435  0.00  0.00    -0.166 F 
ATOM     25  F   UNL     1      -2.066   4.791  -1.253  0.00  0.00    -0.166 F 
ATOM     26  F   UNL     1      -0.028   3.877  -1.548  0.00  0.00    -0.166 F 
ENDBRANCH  21  23
ENDBRANCH  16  17
BRANCH  16  27
ATOM     27  C   UNL     1      -3.099  -1.815  -1.455  0.00  0.00    +0.332 C 
ATOM     28  O   UNL     1      -4.217  -1.480  -1.938  0.00  0.00    -0.248 OA
BRANCH  27  29
ATOM     29  O   UNL     1      -2.926  -3.085  -0.892  0.00  0.00    -0.466 OA
ATOM     30  C   UNL     1      -3.977  -4.037  -0.806  0.00  0.00    +0.280 C 
ENDBRANCH  27  29
ENDBRANCH  16  27
ENDBRANCH   3  16
TORSDOF 10
