REMARK  Name = 
REMARK  7 active torsions:
REMARK  status: ('A' for Active; 'I' for Inactive)
REMARK    1  A    between atoms: C_2  and  O_3
REMARK    2  A    between atoms: C_2  and  C_4
REMARK    3  A    between atoms: C_4  and  C_5
REMARK    4  A    between atoms: C_4  and  C_19
REMARK    5  A    between atoms: C_5  and  N_6
REMARK    6  A    between atoms: C_7  and  C_9
REMARK    7  A    between atoms: C_11  and  C_12
REMARK                            x       y       z     vdW  Elec       q    Type
REMARK                         _______ _______ _______ _____ _____    ______ ____
ROOT
ATOM      1  N   UNL     1       0.206  -0.646  -0.468  0.00  0.00    -0.314 N 
ATOM      2  C   UNL     1      -0.904  -1.447  -0.887  0.00  0.00    +0.217 C 
ATOM      3  O   UNL     1      -1.288  -1.414  -2.089  0.00  0.00    -0.275 OA
ATOM      4  H   UNL     1       0.559  -0.767   0.508  0.00  0.00    +0.149 HD
ENDROOT
BRANCH   2   5
ATOM      5  C   UNL     1      -1.574  -2.360   0.110  0.00  0.00    +0.083 C 
ATOM      6  C   UNL     1      -2.962  -2.846  -0.280  0.00  0.00    +0.022 C 
ATOM      7  C   UNL     1      -2.812  -1.840   0.859  0.00  0.00    +0.033 C 
BRANCH   7   8
ATOM      8  C   UNL     1      -3.299  -0.436   0.562  0.00  0.00    -0.025 A 
ATOM      9  C   UNL     1      -2.458   0.653   0.854  0.00  0.00    +0.005 A 
ATOM     10  C   UNL     1      -2.883   1.963   0.620  0.00  0.00    +0.000 A 
ATOM     11  C   UNL     1      -4.167   2.205   0.134  0.00  0.00    +0.001 A 
ATOM     12  C   UNL     1      -5.040   1.139  -0.093  0.00  0.00    +0.020 A 
ATOM     13  C   UNL     1      -4.624  -0.179   0.138  0.00  0.00    +0.044 A 
ATOM     14 CL   UNL     1      -5.814  -1.463  -0.054  0.00  0.00    -0.083 Cl
ENDBRANCH   7   8
ENDBRANCH   2   5
BRANCH   1  15
ATOM     15  C   UNL     1       0.821   0.336  -1.365  0.00  0.00    +0.123 C 
BRANCH  15  16
ATOM     16  C   UNL     1       1.915   1.182  -0.674  0.00  0.00    +0.144 C 
BRANCH  16  17
ATOM     17  C   UNL     1       3.232   0.464  -0.392  0.00  0.00    -0.032 A 
ATOM     18  C   UNL     1       3.374  -0.941  -0.430  0.00  0.00    +0.007 A 
ATOM     19  C   UNL     1       4.607  -1.538  -0.148  0.00  0.00    +0.038 A 
ATOM     20  C   UNL     1       5.712  -0.749   0.175  0.00  0.00    +0.123 A 
ATOM     21  F   UNL     1       6.905  -1.332   0.448  0.00  0.00    -0.205 F 
ATOM     22  C   UNL     1       5.588   0.641   0.215  0.00  0.00    +0.038 A 
ATOM     23  C   UNL     1       4.359   1.243  -0.066  0.00  0.00    +0.007 A 
ENDBRANCH  16  17
BRANCH  16  25
ATOM     24  O   UNL     1       1.518   1.334   1.698  0.00  0.00    -0.250 OA
ATOM     25  C   UNL     1       1.375   1.859   0.560  0.00  0.00    +0.314 C 
BRANCH  25  26
ATOM     26  O   UNL     1       0.678   3.056   0.435  0.00  0.00    -0.480 OA
ATOM     27  H   UNL     1       0.295   3.522   1.250  0.00  0.00    +0.295 HD
ENDBRANCH  25  26
ENDBRANCH  16  25
ENDBRANCH  15  16
ENDBRANCH   1  15
TORSDOF 7
