REMARK  Name = 
REMARK  11 active torsions:
REMARK  status: ('A' for Active; 'I' for Inactive)
REMARK    1  A    between atoms: C_1  and  C_2
REMARK    2  A    between atoms: C_2  and  C_3
REMARK    3  A    between atoms: C_7  and  C_8
REMARK    4  A    between atoms: C_8  and  C_9
REMARK    5  A    between atoms: C_10  and  N_11
REMARK    6  A    between atoms: C_12  and  C_14
REMARK    7  A    between atoms: C_14  and  O_15
REMARK    8  A    between atoms: O_15  and  C_16
REMARK    9  A    between atoms: C_19  and  N_22
REMARK   10  A    between atoms: C_23  and  C_25
REMARK   11  A    between atoms: C_29  and  C_30
REMARK                            x       y       z     vdW  Elec       q    Type
REMARK                         _______ _______ _______ _____ _____    ______ ____
ROOT
ATOM      1  C   UNL     1      -0.022   1.881  -2.469  0.00  0.00    +0.121 A 
ATOM      2  C   UNL     1       1.188   2.582  -2.423  0.00  0.00    +0.047 A 
ATOM      3  C   UNL     1       2.362   1.945  -2.009  0.00  0.00    +0.027 A 
ATOM      4  C   UNL     1       2.339   0.600  -1.620  0.00  0.00    +0.034 A 
ATOM      5  C   UNL     1       1.138  -0.122  -1.719  0.00  0.00    +0.027 A 
ATOM      6  C   UNL     1      -0.034   0.513  -2.142  0.00  0.00    +0.047 A 
ENDROOT
BRANCH   4   7
ATOM      7  N   UNL     1       3.551  -0.024  -1.167  0.00  0.00    -0.281 N 
ATOM      8  C   UNL     1       3.613  -0.898  -0.024  0.00  0.00    +0.248 C 
ATOM      9  O   UNL     1       2.556  -1.206   0.590  0.00  0.00    -0.270 OA
ATOM     10  H   UNL     1       4.440   0.280  -1.627  0.00  0.00    +0.155 HD
BRANCH   8  11
ATOM     11  C   UNL     1       4.907  -1.426   0.469  0.00  0.00    +0.037 A 
ATOM     12  C   UNL     1       4.948  -2.671   1.122  0.00  0.00    +0.013 A 
ATOM     13  C   UNL     1       6.157  -3.177   1.603  0.00  0.00    +0.001 A 
ATOM     14  C   UNL     1       7.335  -2.442   1.456  0.00  0.00    +0.003 A 
ATOM     15  C   UNL     1       7.309  -1.185   0.839  0.00  0.00    -0.050 A 
ATOM     16  C   UNL     1       8.576  -0.398   0.670  0.00  0.00    +0.044 C 
ATOM     17  C   UNL     1       6.097  -0.687   0.334  0.00  0.00    +0.016 A 
ENDBRANCH   8  11
ENDBRANCH   4   7
BRANCH   1  18
ATOM     18  O   UNL     1      -1.182   2.581  -2.838  0.00  0.00    -0.483 OA
BRANCH  18  19
ATOM     19  C   UNL     1      -2.512   2.072  -2.747  0.00  0.00    +0.324 C 
BRANCH  19  21
ATOM     20  N   UNL     1      -3.498   0.673  -0.865  0.00  0.00    -0.282 N 
ATOM     21  C   UNL     1      -2.917   1.902  -1.312  0.00  0.00    +0.255 C 
ATOM     22  O   UNL     1      -2.779   2.866  -0.511  0.00  0.00    -0.272 OA
ATOM     23  H   UNL     1      -3.545  -0.138  -1.523  0.00  0.00    +0.155 HD
BRANCH  20  29
ATOM     24  C   UNL     1      -3.137  -0.309   1.371  0.00  0.00    -0.026 A 
ATOM     25  C   UNL     1      -3.597  -0.559   2.673  0.00  0.00    +0.005 A 
ATOM     26  C   UNL     1      -4.812  -0.032   3.108  0.00  0.00    +0.001 A 
ATOM     27  C   UNL     1      -5.587   0.747   2.250  0.00  0.00    +0.005 A 
ATOM     28  C   UNL     1      -5.155   1.013   0.940  0.00  0.00    -0.026 A 
ATOM     29  C   UNL     1      -3.924   0.472   0.491  0.00  0.00    +0.040 A 
BRANCH  24  31
ATOM     30  C   UNL     1      -2.023  -2.259   0.260  0.00  0.00    +0.009 C 
ATOM     31  C   UNL     1      -1.819  -0.905   0.936  0.00  0.00    +0.033 C 
ENDBRANCH  24  31
BRANCH  28  32
ATOM     32  C   UNL     1      -6.068   1.790   0.017  0.00  0.00    +0.033 C 
ATOM     33  C   UNL     1      -6.958   0.845  -0.785  0.00  0.00    +0.009 C 
ENDBRANCH  28  32
ENDBRANCH  20  29
ENDBRANCH  19  21
ENDBRANCH  18  19
ENDBRANCH   1  18
TORSDOF 8
