REMARK  Name = 
REMARK  11 active torsions:
REMARK  status: ('A' for Active; 'I' for Inactive)
REMARK    1  A    between atoms: C_1  and  O_2
REMARK    2  A    between atoms: O_2  and  C_3
REMARK    3  A    between atoms: C_8  and  C_9
REMARK    4  A    between atoms: C_9  and  C_10
REMARK    5  A    between atoms: C_9  and  N_11
REMARK    6  A    between atoms: C_12  and  C_14
REMARK    7  A    between atoms: C_14  and  C_15
REMARK    8  A    between atoms: C_15  and  C_16
REMARK    9  A    between atoms: C_15  and  C_17
REMARK   10  A    between atoms: C_15  and  C_20
REMARK   11  A    between atoms: C_17  and  O_19
REMARK                            x       y       z     vdW  Elec       q    Type
REMARK                         _______ _______ _______ _____ _____    ______ ____
ROOT
ATOM      1  N   UNL     1      -0.263  -0.799   0.108  0.00  0.00    -0.309 N 
ATOM      2  C   UNL     1       0.082  -0.534   1.474  0.00  0.00    +0.215 C 
ATOM      3  O   UNL     1      -0.544   0.343   2.128  0.00  0.00    -0.276 OA
ATOM      4  H   UNL     1       0.184  -1.617  -0.367  0.00  0.00    +0.149 HD
ENDROOT
BRANCH   1   5
ATOM      5  C   UNL     1      -1.161   0.075  -0.655  0.00  0.00    +0.104 C 
ATOM      6  C   UNL     1      -1.097  -0.266  -2.145  0.00  0.00    +0.033 C 
BRANCH   5  12
ATOM      7  C   UNL     1      -3.461   1.081  -0.236  0.00  0.00    +0.125 A 
ATOM      8  C   UNL     1      -4.791   0.955   0.213  0.00  0.00    +0.046 A 
ATOM      9  C   UNL     1      -5.253  -0.260   0.723  0.00  0.00    +0.004 A 
ATOM     10  C   UNL     1      -4.405  -1.366   0.772  0.00  0.00    +0.001 A 
ATOM     11  C   UNL     1      -3.090  -1.261   0.320  0.00  0.00    +0.009 A 
ATOM     12  C   UNL     1      -2.593  -0.033  -0.160  0.00  0.00    +0.014 A 
BRANCH   7  14
ATOM     13  C   UNL     1      -3.738   3.486  -0.880  0.00  0.00    +0.277 C 
ATOM     14  O   UNL     1      -2.975   2.289  -0.765  0.00  0.00    -0.495 OA
ENDBRANCH   7  14
ENDBRANCH   5  12
ENDBRANCH   1   5
BRANCH   2  15
ATOM     15  C   UNL     1       1.230  -1.265   2.119  0.00  0.00    +0.118 C 
BRANCH  15  16
ATOM     16  C   UNL     1       2.605  -0.564   1.892  0.00  0.00    +0.098 C 
ATOM     17  C   UNL     1       2.643   0.766   2.685  0.00  0.00    +0.028 C 
BRANCH  16  18
ATOM     18  C   UNL     1       2.840  -0.375   0.379  0.00  0.00    -0.030 A 
ATOM     19  C   UNL     1       2.727   0.884  -0.260  0.00  0.00    +0.005 A 
ATOM     20  C   UNL     1       2.885   1.000  -1.645  0.00  0.00    +0.000 A 
ATOM     21  C   UNL     1       3.147  -0.130  -2.421  0.00  0.00    +0.000 A 
ATOM     22  C   UNL     1       3.240  -1.383  -1.814  0.00  0.00    +0.000 A 
ATOM     23  C   UNL     1       3.083  -1.508  -0.431  0.00  0.00    +0.005 A 
ENDBRANCH  16  18
BRANCH  16  24
ATOM     24  C   UNL     1       3.730  -1.419   2.456  0.00  0.00    +0.316 C 
ATOM     25  O   UNL     1       3.500  -2.308   3.319  0.00  0.00    -0.250 OA
BRANCH  24  26
ATOM     26  O   UNL     1       5.044  -1.178   2.060  0.00  0.00    -0.480 OA
ATOM     27  H   UNL     1       5.808  -1.728   2.432  0.00  0.00    +0.295 HD
ENDBRANCH  24  26
ENDBRANCH  16  24
ENDBRANCH  15  16
ENDBRANCH   2  15
TORSDOF 8
