REMARK  Name = 
REMARK  6 active torsions:
REMARK  status: ('A' for Active; 'I' for Inactive)
REMARK    1  A    between atoms: C_2  and  C_20
REMARK    2  A    between atoms: N_3  and  C_4
REMARK    3  A    between atoms: C_4  and  C_5
REMARK    4  A    between atoms: C_10  and  S_11
REMARK    5  A    between atoms: S_11  and  N_14
REMARK    6  A    between atoms: C_22  and  O_23
REMARK                            x       y       z     vdW  Elec       q    Type
REMARK                         _______ _______ _______ _____ _____    ______ ____
ROOT
ATOM      1  O   UNL     1      -2.964  -2.875  -0.312  0.00  0.00    -0.270 OA
ATOM      2  C   UNL     1      -3.037  -1.660  -0.646  0.00  0.00    +0.245 C 
ATOM      3  N   UNL     1      -1.844  -0.927  -0.970  0.00  0.00    -0.307 N 
ATOM      4  H   UNL     1      -1.929   0.058  -1.310  0.00  0.00    +0.149 HD
ENDROOT
BRANCH   2   5
ATOM      5  C   UNL     1      -4.369  -1.026  -0.768  0.00  0.00    +0.051 A 
ATOM      6  C   UNL     1      -5.350  -1.697  -1.514  0.00  0.00    +0.080 A 
ATOM      7  C   UNL     1      -6.607  -1.117  -1.704  0.00  0.00    +0.214 A 
ATOM      8  N   UNL     1      -6.886   0.092  -1.155  0.00  0.00    -0.213 NA
ATOM      9  C   UNL     1      -5.978   0.769  -0.405  0.00  0.00    +0.076 A 
ATOM     10  C   UNL     1      -6.330   2.004   0.152  0.00  0.00    +0.028 A 
ATOM     11  C   UNL     1      -5.421   2.698   0.952  0.00  0.00    +0.002 A 
ATOM     12  C   UNL     1      -4.160   2.158   1.209  0.00  0.00    +0.001 A 
ATOM     13  C   UNL     1      -3.795   0.926   0.658  0.00  0.00    +0.011 A 
ATOM     14  C   UNL     1      -4.689   0.223  -0.177  0.00  0.00    +0.013 A 
BRANCH   7  15
ATOM     15  O   UNL     1      -7.582  -1.765  -2.458  0.00  0.00    -0.492 OA
ATOM     16  H   UNL     1      -7.409  -2.668  -2.885  0.00  0.00    +0.294 HD
ENDBRANCH   7  15
ENDBRANCH   2   5
BRANCH   3  17
ATOM     17  C   UNL     1      -0.498  -1.487  -0.837  0.00  0.00    +0.141 C 
BRANCH  17  18
ATOM     18  C   UNL     1       0.204  -0.902   0.374  0.00  0.00    -0.004 A 
ATOM     19  C   UNL     1      -0.469  -0.966   1.610  0.00  0.00    +0.007 A 
ATOM     20  C   UNL     1       0.077  -0.390   2.754  0.00  0.00    +0.000 A 
ATOM     21  C   UNL     1       1.308   0.252   2.687  0.00  0.00    +0.002 A 
ATOM     22  C   UNL     1       2.016   0.287   1.486  0.00  0.00    +0.029 A 
ATOM     23  C   UNL     1       1.507  -0.323   0.323  0.00  0.00    +0.110 A 
BRANCH  23  24
ATOM     24  S   UNL     1       2.489  -0.354  -1.170  0.00  0.00    +0.061 S 
ATOM     25  O   UNL     1       1.893   0.621  -2.148  0.00  0.00    -0.153 OA
ATOM     26  O   UNL     1       2.414  -1.736  -1.760  0.00  0.00    -0.153 OA
BRANCH  24  27
ATOM     27  N   UNL     1       4.188   0.016  -0.977  0.00  0.00    -0.177 NA
ATOM     28  C   UNL     1       4.848  -0.889  -0.019  0.00  0.00    +0.109 C 
ATOM     29  C   UNL     1       6.375  -0.722  -0.088  0.00  0.00    +0.017 C 
ATOM     30  C   UNL     1       6.812   0.739  -0.317  0.00  0.00    +0.003 C 
ATOM     31  C   UNL     1       5.710   1.733   0.060  0.00  0.00    +0.017 C 
ATOM     32  C   UNL     1       4.434   1.460  -0.758  0.00  0.00    +0.109 C 
ENDBRANCH  24  27
ENDBRANCH  23  24
ENDBRANCH  17  18
ENDBRANCH   3  17
TORSDOF 6
