REMARK  Name = 
REMARK  6 active torsions:
REMARK  status: ('A' for Active; 'I' for Inactive)
REMARK    1  A    between atoms: C_1  and  N_2
REMARK    2  A    between atoms: N_2  and  S_3
REMARK    3  A    between atoms: S_3  and  C_6
REMARK    4  A    between atoms: C_11  and  C_13
REMARK    5  A    between atoms: C_15  and  C_21
REMARK    6  A    between atoms: C_17  and  C_18
REMARK                            x       y       z     vdW  Elec       q    Type
REMARK                         _______ _______ _______ _____ _____    ______ ____
ROOT
ATOM      1  C   UNL     1      -1.025  -1.190  -0.253  0.00  0.00    +0.167 A 
ATOM      2  N   UNL     1      -1.319   0.108  -0.045  0.00  0.00    -0.204 NA
ATOM      3  C   UNL     1      -2.598   0.223  -0.463  0.00  0.00    +0.228 A 
ATOM      4  O   UNL     1      -3.089  -0.915  -0.901  0.00  0.00    -0.439 OA
ATOM      5  C   UNL     1      -2.144  -1.814  -0.779  0.00  0.00    +0.141 A 
ENDROOT
BRANCH   1  11
ATOM      6  C   UNL     1       3.004   0.742   0.692  0.00  0.00    +0.167 C 
ATOM      7  C   UNL     1       3.570  -0.522   1.354  0.00  0.00    +0.048 C 
ATOM      8  C   UNL     1       2.657  -1.664   0.933  0.00  0.00    +0.110 C 
ATOM      9  N   UNL     1       1.429  -1.039   0.473  0.00  0.00    -0.294 N 
ATOM     10  C   UNL     1       1.535   0.409   0.402  0.00  0.00    +0.136 C 
ATOM     11  C   UNL     1       0.286  -1.813   0.056  0.00  0.00    +0.268 C 
ATOM     12  O   UNL     1       0.402  -3.064  -0.045  0.00  0.00    -0.268 OA
BRANCH   6  13
ATOM     13  S   UNL     1       3.914   1.178  -0.808  0.00  0.00    +0.034 S 
ATOM     14  O   UNL     1       3.020   1.954  -1.734  0.00  0.00    -0.158 OA
ATOM     15  O   UNL     1       4.374  -0.066  -1.518  0.00  0.00    -0.158 OA
BRANCH  13  17
ATOM     16  C   UNL     1       6.231   1.474   0.419  0.00  0.00    +0.127 C 
ATOM     17  N   UNL     1       5.282   2.187  -0.431  0.00  0.00    -0.197 NA
ATOM     18  H   UNL     1       5.762   2.395  -1.337  0.00  0.00    +0.147 HD
ENDBRANCH  13  17
ENDBRANCH   6  13
ENDBRANCH   1  11
BRANCH   3  19
ATOM     19  C   UNL     1      -3.360   1.487  -0.431  0.00  0.00    +0.037 A 
ATOM     20  C   UNL     1      -4.693   1.520  -0.875  0.00  0.00    +0.013 A 
ATOM     21  C   UNL     1      -5.417   2.716  -0.847  0.00  0.00    +0.001 A 
ATOM     22  C   UNL     1      -4.818   3.887  -0.376  0.00  0.00    +0.000 A 
ATOM     23  C   UNL     1      -3.494   3.864   0.068  0.00  0.00    +0.001 A 
ATOM     24  C   UNL     1      -2.765   2.671   0.042  0.00  0.00    +0.013 A 
ENDBRANCH   3  19
BRANCH   5  25
ATOM     25  C   UNL     1      -2.289  -3.252  -1.180  0.00  0.00    +0.058 C 
ATOM     26  C   UNL     1      -3.672  -3.847  -0.956  0.00  0.00    +0.012 C 
ATOM     27  C   UNL     1      -2.532  -4.203  -0.018  0.00  0.00    +0.012 C 
ENDBRANCH   5  25
TORSDOF 5
