REMARK  Name = 
REMARK  9 active torsions:
REMARK  status: ('A' for Active; 'I' for Inactive)
REMARK    1  A    between atoms: C_1  and  C_2
REMARK    2  A    between atoms: C_2  and  C_3
REMARK    3  A    between atoms: C_9  and  C_11
REMARK    4  A    between atoms: N_13  and  C_14
REMARK    5  A    between atoms: C_14  and  C_15
REMARK    6  A    between atoms: C_14  and  C_21
REMARK    7  A    between atoms: C_21  and  C_22
REMARK    8  A    between atoms: C_21  and  C_23
REMARK    9  A    between atoms: C_23  and  O_25
REMARK                            x       y       z     vdW  Elec       q    Type
REMARK                         _______ _______ _______ _____ _____    ______ ____
ROOT
ATOM      1  C   UNL     1       0.150  -0.346  -0.387  0.00  0.00    +0.218 C 
ATOM      2  O   UNL     1       0.172  -0.833  -1.551  0.00  0.00    -0.275 OA
ATOM      3  N   UNL     1      -0.965   0.452   0.038  0.00  0.00    -0.307 N 
ATOM      4  H   UNL     1      -0.982   0.802   1.023  0.00  0.00    +0.149 HD
ENDROOT
BRANCH   1  11
ATOM      5  C   UNL     1       4.887   0.331   1.006  0.00  0.00    +0.215 C 
ATOM      6  O   UNL     1       6.037  -0.176   1.123  0.00  0.00    -0.276 OA
ATOM      7  N   UNL     1       3.737  -0.529   0.857  0.00  0.00    -0.301 N 
ATOM      8  C   UNL     1       3.831  -1.935   1.278  0.00  0.00    +0.108 C 
ATOM      9  C   UNL     1       2.499  -2.410   1.868  0.00  0.00    +0.020 C 
ATOM     10  C   UNL     1       1.341  -2.122   0.909  0.00  0.00    +0.016 C 
ATOM     11  C   UNL     1       1.288  -0.626   0.561  0.00  0.00    +0.092 C 
ATOM     12  C   UNL     1       2.626  -0.163  -0.037  0.00  0.00    +0.120 C 
BRANCH   5  14
ATOM     13  C   UNL     1       5.132   2.443  -0.304  0.00  0.00    +0.013 C 
ATOM     14  C   UNL     1       4.761   1.829   1.042  0.00  0.00    +0.092 C 
ENDBRANCH   5  14
ENDBRANCH   1  11
BRANCH   3  15
ATOM     15  C   UNL     1      -2.143   0.655  -0.812  0.00  0.00    +0.117 C 
BRANCH  15  16
ATOM     16  C   UNL     1      -3.001  -0.596  -0.782  0.00  0.00    -0.026 A 
ATOM     17  C   UNL     1      -3.401  -1.208  -1.983  0.00  0.00    +0.005 A 
ATOM     18  C   UNL     1      -4.202  -2.355  -1.958  0.00  0.00    +0.000 A 
ATOM     19  C   UNL     1      -4.611  -2.897  -0.738  0.00  0.00    +0.000 A 
ATOM     20  C   UNL     1      -4.223  -2.294   0.461  0.00  0.00    +0.000 A 
ATOM     21  C   UNL     1      -3.423  -1.148   0.442  0.00  0.00    +0.005 A 
ENDBRANCH  15  16
BRANCH  15  22
ATOM     22  C   UNL     1      -2.947   1.903  -0.354  0.00  0.00    +0.119 C 
ATOM     23  C   UNL     1      -2.098   3.180  -0.431  0.00  0.00    +0.021 C 
BRANCH  22  24
ATOM     24  C   UNL     1      -4.195   2.081  -1.180  0.00  0.00    +0.310 C 
ATOM     25  O   UNL     1      -4.116   2.280  -2.422  0.00  0.00    -0.251 OA
BRANCH  24  26
ATOM     26  O   UNL     1      -5.443   2.014  -0.568  0.00  0.00    -0.480 OA
ATOM     27  H   UNL     1      -6.293   2.123  -1.109  0.00  0.00    +0.295 HD
ENDBRANCH  24  26
ENDBRANCH  22  24
ENDBRANCH  15  22
ENDBRANCH   3  15
TORSDOF 7
