REMARK  Name = 
REMARK  4 active torsions:
REMARK  status: ('A' for Active; 'I' for Inactive)
REMARK    1  A    between atoms: C_2  and  C_3
REMARK    2  A    between atoms: N_13  and  C_14
REMARK    3  A    between atoms: C_14  and  C_15
REMARK    4  A    between atoms: C_19  and  N_21
REMARK                            x       y       z     vdW  Elec       q    Type
REMARK                         _______ _______ _______ _____ _____    ______ ____
ROOT
ATOM      1  C   UNL     1       4.760   1.091  -1.170  0.00  0.00    +0.052 A 
ATOM      2  C   UNL     1       4.821   1.089   0.230  0.00  0.00    +0.021 A 
ATOM      3  C   UNL     1       3.787   0.519   0.979  0.00  0.00    +0.029 A 
ATOM      4  C   UNL     1       2.686  -0.052   0.333  0.00  0.00    +0.073 A 
ATOM      5  N   UNL     1       1.678  -0.605   1.059  0.00  0.00    -0.232 NA
ATOM      6  C   UNL     1       0.585  -1.170   0.475  0.00  0.00    +0.120 A 
ATOM      7  C   UNL     1       0.491  -1.194  -0.928  0.00  0.00    +0.044 A 
ATOM      8  C   UNL     1       1.509  -0.632  -1.701  0.00  0.00    +0.013 A 
ATOM      9  C   UNL     1       2.620  -0.053  -1.077  0.00  0.00    +0.002 A 
ATOM     10  C   UNL     1       3.660   0.520  -1.824  0.00  0.00    +0.029 A 
ATOM     11  N   UNL     1      -0.437  -1.730   1.318  0.00  0.00    -0.325 N 
ATOM     12  H   UNL     1      -0.258  -1.761   2.347  0.00  0.00    +0.148 HD
ENDROOT
BRANCH   1  14
ATOM     13  N   UNL     1       6.686   2.151  -2.551  0.00  0.00    -0.191 NA
ATOM     14  C   UNL     1       5.828   1.679  -1.936  0.00  0.00    +0.099 C 
ENDBRANCH   1  14
BRANCH  11  15
ATOM     15  C   UNL     1      -1.737  -2.208   0.844  0.00  0.00    +0.138 C 
BRANCH  15  16
ATOM     16  C   UNL     1      -2.587  -1.058   0.371  0.00  0.00    -0.028 A 
ATOM     17  C   UNL     1      -3.131  -1.059  -0.923  0.00  0.00    +0.005 A 
ATOM     18  C   UNL     1      -3.922   0.007  -1.354  0.00  0.00    +0.003 A 
ATOM     19  C   UNL     1      -4.186   1.078  -0.498  0.00  0.00    +0.033 A 
ATOM     20  C   UNL     1      -3.663   1.094   0.806  0.00  0.00    +0.127 A 
ATOM     21  C   UNL     1      -2.865   0.015   1.234  0.00  0.00    +0.038 A 
BRANCH  20  22
ATOM     22  N   UNL     1      -3.940   2.197   1.688  0.00  0.00    +0.056 N 
ATOM     23  O   UNL     1      -4.721   3.249   1.268  0.00  0.00    -0.126 OA
ATOM     24  O   UNL     1      -3.475   2.220   2.847  0.00  0.00    -0.126 OA
ENDBRANCH  20  22
ENDBRANCH  15  16
ENDBRANCH  11  15
TORSDOF 4
