REMARK  Name = 
REMARK  9 active torsions:
REMARK  status: ('A' for Active; 'I' for Inactive)
REMARK    1  A    between atoms: C_1  and  O_2
REMARK    2  A    between atoms: O_2  and  C_3
REMARK    3  A    between atoms: C_3  and  C_5
REMARK    4  A    between atoms: C_5  and  C_6
REMARK    5  A    between atoms: C_6  and  N_7
REMARK    6  A    between atoms: C_6  and  C_20
REMARK    7  A    between atoms: C_8  and  C_10
REMARK    8  A    between atoms: C_15  and  O_16
REMARK    9  A    between atoms: O_16  and  C_17
REMARK                            x       y       z     vdW  Elec       q    Type
REMARK                         _______ _______ _______ _____ _____    ______ ____
ROOT
ATOM      1  C   UNL     1       0.957  -0.460  -0.741  0.00  0.00    +0.117 C 
ENDROOT
BRANCH   1   2
ATOM      2  C   UNL     1       1.706  -0.962   0.485  0.00  0.00    +0.009 A 
ATOM      3  C   UNL     1       1.422  -0.431   1.759  0.00  0.00    +0.011 A 
ATOM      4  C   UNL     1       2.129  -0.865   2.883  0.00  0.00    +0.039 A 
ATOM      5  C   UNL     1       3.132  -1.827   2.751  0.00  0.00    +0.126 A 
ATOM      6  F   UNL     1       3.819  -2.245   3.843  0.00  0.00    -0.205 F 
ATOM      7  C   UNL     1       3.430  -2.357   1.494  0.00  0.00    +0.077 A 
ATOM      8  C   UNL     1       2.726  -1.929   0.363  0.00  0.00    +0.131 A 
ATOM      9  F   UNL     1       3.049  -2.454  -0.846  0.00  0.00    -0.205 F 
ENDBRANCH   1   2
BRANCH   1  10
ATOM     10  N   UNL     1      -0.490  -0.640  -0.566  0.00  0.00    -0.304 N 
ATOM     11  C   UNL     1      -1.420  -0.493  -1.651  0.00  0.00    +0.248 C 
ATOM     12  O   UNL     1      -1.004  -0.522  -2.842  0.00  0.00    -0.270 OA
ATOM     13  H   UNL     1      -0.868  -0.935   0.363  0.00  0.00    +0.150 HD
BRANCH  11  14
ATOM     14  C   UNL     1      -2.869  -0.341  -1.389  0.00  0.00    +0.078 A 
ATOM     15  C   UNL     1      -3.791  -0.936  -2.268  0.00  0.00    +0.017 A 
ATOM     16  C   UNL     1      -5.163  -0.823  -2.040  0.00  0.00    +0.001 A 
ATOM     17  C   UNL     1      -5.632  -0.109  -0.938  0.00  0.00    +0.004 A 
ATOM     18  C   UNL     1      -4.731   0.505  -0.066  0.00  0.00    +0.046 A 
ATOM     19  C   UNL     1      -3.342   0.407  -0.286  0.00  0.00    +0.139 A 
BRANCH  19  20
ATOM     20  O   UNL     1      -2.416   1.058   0.547  0.00  0.00    -0.433 OA
BRANCH  20  21
ATOM     21  C   UNL     1      -2.746   1.803   1.716  0.00  0.00    +0.541 C 
ATOM     22  F   UNL     1      -1.592   2.357   2.237  0.00  0.00    -0.166 F 
ATOM     23  F   UNL     1      -3.310   0.968   2.664  0.00  0.00    -0.166 F 
ENDBRANCH  20  21
ENDBRANCH  19  20
ENDBRANCH  11  14
ENDBRANCH   1  10
BRANCH   1  24
ATOM     24  C   UNL     1       1.276   1.024  -1.018  0.00  0.00    +0.147 C 
BRANCH  24  25
ATOM     25  C   UNL     1       2.737   1.229  -1.279  0.00  0.00    +0.309 C 
ATOM     26  O   UNL     1       3.193   1.075  -2.445  0.00  0.00    -0.251 OA
BRANCH  25  28
ATOM     27  C   UNL     1       4.996   1.663  -0.370  0.00  0.00    +0.280 C 
ATOM     28  O   UNL     1       3.589   1.534  -0.213  0.00  0.00    -0.468 OA
ENDBRANCH  25  28
ENDBRANCH  24  25
ENDBRANCH   1  24
TORSDOF 8
