REMARK  Name = 
REMARK  3 active torsions:
REMARK  status: ('A' for Active; 'I' for Inactive)
REMARK    1  A    between atoms: C_1  and  C_2
REMARK    2  A    between atoms: C_5  and  S_12
REMARK    3  A    between atoms: S_12  and  N_15
REMARK                            x       y       z     vdW  Elec       q    Type
REMARK                         _______ _______ _______ _____ _____    ______ ____
ROOT
ATOM      1  S   UNL     1       0.050   1.246   0.546  0.00  0.00    +0.062 S 
ATOM      2  O   UNL     1       0.877   1.199   1.800  0.00  0.00    -0.153 OA
ATOM      3  O   UNL     1      -0.120   2.686   0.149  0.00  0.00    -0.153 OA
ENDROOT
BRANCH   1   8
ATOM      4  C   UNL     1      -5.382  -1.239   1.845  0.00  0.00    +0.044 C 
ATOM      5  C   UNL     1      -4.065  -0.609   1.462  0.00  0.00    -0.043 A 
ATOM      6  C   UNL     1      -3.057  -0.524   2.430  0.00  0.00    +0.006 A 
ATOM      7  C   UNL     1      -1.825   0.046   2.130  0.00  0.00    +0.029 A 
ATOM      8  C   UNL     1      -1.556   0.553   0.853  0.00  0.00    +0.113 A 
ATOM      9  C   UNL     1      -2.557   0.479  -0.150  0.00  0.00    +0.009 A 
ATOM     10  C   UNL     1      -2.335   0.970  -1.456  0.00  0.00    +0.010 A 
ATOM     11  C   UNL     1      -3.328   0.886  -2.430  0.00  0.00    +0.001 A 
ATOM     12  C   UNL     1      -4.560   0.315  -2.129  0.00  0.00    +0.001 A 
ATOM     13  C   UNL     1      -4.809  -0.178  -0.849  0.00  0.00    +0.009 A 
ATOM     14  C   UNL     1      -3.822  -0.108   0.158  0.00  0.00    -0.013 A 
ENDBRANCH   1   8
BRANCH   1  15
ATOM     15  N   UNL     1       0.833   0.358  -0.745  0.00  0.00    -0.174 NA
ATOM     16  C   UNL     1       0.977  -1.083  -0.457  0.00  0.00    +0.112 C 
ATOM     17  C   UNL     1       2.159  -1.398   0.470  0.00  0.00    +0.051 C 
ATOM     18  C   UNL     1       3.456  -0.796  -0.072  0.00  0.00    +0.150 C 
ATOM     19  O   UNL     1       4.518  -1.100   0.821  0.00  0.00    -0.372 OA
ATOM     20  C   UNL     1       5.543  -0.118   0.824  0.00  0.00    +0.188 C 
ATOM     21  C   UNL     1       5.642   0.671  -0.499  0.00  0.00    +0.188 C 
ATOM     22  O   UNL     1       4.436   1.326  -0.865  0.00  0.00    -0.370 OA
ATOM     23  C   UNL     1       3.280   0.729  -0.294  0.00  0.00    +0.163 C 
ATOM     24  C   UNL     1       2.079   0.994  -1.217  0.00  0.00    +0.143 C 
ENDBRANCH   1  15
TORSDOF 2
