REMARK  Name = 
REMARK  6 active torsions:
REMARK  status: ('A' for Active; 'I' for Inactive)
REMARK    1  A    between atoms: C_1  and  O_2
REMARK    2  A    between atoms: O_2  and  C_3
REMARK    3  A    between atoms: C_6  and  S_12
REMARK    4  A    between atoms: C_8  and  C_9
REMARK    5  A    between atoms: S_12  and  N_15
REMARK    6  A    between atoms: N_15  and  C_16
REMARK                            x       y       z     vdW  Elec       q    Type
REMARK                         _______ _______ _______ _____ _____    ______ ____
ROOT
ATOM      1  S   UNL     1       0.352   2.721   0.484  0.00  0.00    +0.059 S 
ATOM      2  O   UNL     1       0.806   3.848  -0.400  0.00  0.00    -0.153 OA
ATOM      3  O   UNL     1       0.463   3.170   1.916  0.00  0.00    -0.153 OA
ENDROOT
BRANCH   1   7
ATOM      4  C   UNL     1       3.014  -0.925  -0.282  0.00  0.00    +0.132 A 
ATOM      5  C   UNL     1       2.914  -0.372   1.010  0.00  0.00    +0.048 A 
ATOM      6  C   UNL     1       2.115   0.748   1.243  0.00  0.00    +0.032 A 
ATOM      7  C   UNL     1       1.397   1.331   0.196  0.00  0.00    +0.106 A 
ATOM      8  C   UNL     1       1.492   0.793  -1.092  0.00  0.00    +0.045 A 
ATOM      9  C   UNL     1       2.295  -0.334  -1.346  0.00  0.00    +0.080 A 
BRANCH   9  10
ATOM     10  C   UNL     1       2.357  -0.898  -2.717  0.00  0.00    +0.245 C 
ATOM     11  N   UNL     1       2.228  -0.058  -3.867  0.00  0.00    -0.325 N 
ATOM     12  O   UNL     1       2.524  -2.136  -2.883  0.00  0.00    -0.270 OA
ATOM     13  H   UNL     1       2.221  -0.479  -4.823  0.00  0.00    +0.145 HD
ATOM     14  H   UNL     1       2.213   0.982  -3.784  0.00  0.00    +0.145 HD
ENDBRANCH   9  10
BRANCH   4  16
ATOM     15  C   UNL     1       4.596  -2.729   0.443  0.00  0.00    +0.277 C 
ATOM     16  O   UNL     1       3.824  -2.044  -0.538  0.00  0.00    -0.494 OA
ENDBRANCH   4  16
ENDBRANCH   1   7
BRANCH   1  17
ATOM     17  N   UNL     1      -1.307   2.342   0.107  0.00  0.00    -0.178 NA
ATOM     18  H   UNL     1      -1.339   1.881  -0.831  0.00  0.00    +0.149 HD
BRANCH  17  19
ATOM     19  C   UNL     1      -1.939   1.483   1.123  0.00  0.00    +0.162 C 
ATOM     20  C   UNL     1      -1.427   0.011   1.051  0.00  0.00    +0.030 C 
ATOM     21  C   UNL     1      -2.476  -1.048   1.420  0.00  0.00    +0.004 C 
ATOM     22  C   UNL     1      -3.377  -1.428   0.231  0.00  0.00    +0.019 C 
ATOM     23  C   UNL     1      -3.792  -0.239  -0.647  0.00  0.00    +0.104 C 
ATOM     24  N   UNL     1      -4.278   0.871   0.165  0.00  0.00    -0.314 N 
ATOM     25  C   UNL     1      -3.443   1.663   1.025  0.00  0.00    +0.232 C 
ATOM     26  O   UNL     1      -3.977   2.587   1.695  0.00  0.00    -0.274 OA
ATOM     27  H   UNL     1      -5.292   1.117   0.100  0.00  0.00    +0.149 HD
ENDBRANCH  17  19
ENDBRANCH   1  17
TORSDOF 5
