REMARK  Name = 
REMARK  7 active torsions:
REMARK  status: ('A' for Active; 'I' for Inactive)
REMARK    1  A    between atoms: C_2  and  O_3
REMARK    2  A    between atoms: C_2  and  C_4
REMARK    3  A    between atoms: C_9  and  C_10
REMARK    4  A    between atoms: N_12  and  C_13
REMARK    5  A    between atoms: C_17  and  O_19
REMARK    6  A    between atoms: O_19  and  C_20
REMARK    7  A    between atoms: C_20  and  C_21
REMARK                            x       y       z     vdW  Elec       q    Type
REMARK                         _______ _______ _______ _____ _____    ______ ____
ROOT
ATOM      1  C   UNL     1      -2.039   0.219   0.405  0.00  0.00    +0.221 C 
ATOM      2  O   UNL     1      -1.470   0.321  -0.717  0.00  0.00    -0.275 OA
ATOM      3  N   UNL     1      -1.528  -0.686   1.398  0.00  0.00    -0.285 N 
ATOM      4  H   UNL     1      -2.166  -0.958   2.180  0.00  0.00    +0.155 HD
ENDROOT
BRANCH   1  10
ATOM      5  C   UNL     1      -4.558   0.181   0.161  0.00  0.00    +0.113 C 
ATOM      6  C   UNL     1      -5.853   0.923   0.554  0.00  0.00    +0.042 C 
ATOM      7  C   UNL     1      -5.790   2.411   0.300  0.00  0.00    -0.030 C 
ATOM      8  C   UNL     1      -4.632   3.083   0.183  0.00  0.00    -0.030 C 
ATOM      9  C   UNL     1      -3.293   2.394   0.085  0.00  0.00    +0.040 C 
ATOM     10  C   UNL     1      -3.326   0.967   0.668  0.00  0.00    +0.093 C 
BRANCH   5  12
ATOM     11  O   UNL     1      -4.857   0.773  -2.161  0.00  0.00    -0.251 OA
ATOM     12  C   UNL     1      -4.500  -0.100  -1.323  0.00  0.00    +0.309 C 
BRANCH  12  13
ATOM     13  O   UNL     1      -4.002  -1.319  -1.770  0.00  0.00    -0.480 OA
ATOM     14  H   UNL     1      -3.938  -1.524  -2.760  0.00  0.00    +0.295 HD
ENDBRANCH  12  13
ENDBRANCH   5  12
ENDBRANCH   1  10
BRANCH   3  15
ATOM     15  C   UNL     1      -0.259  -1.355   1.303  0.00  0.00    +0.037 A 
ATOM     16  C   UNL     1      -0.118  -2.640   1.845  0.00  0.00    +0.023 A 
ATOM     17  C   UNL     1       1.106  -3.308   1.772  0.00  0.00    +0.005 A 
ATOM     18  C   UNL     1       2.207  -2.695   1.169  0.00  0.00    +0.046 A 
ATOM     19  C   UNL     1       2.091  -1.395   0.642  0.00  0.00    +0.123 A 
ATOM     20  C   UNL     1       0.861  -0.730   0.723  0.00  0.00    +0.069 A 
BRANCH  19  21
ATOM     21  O   UNL     1       3.167  -0.732   0.034  0.00  0.00    -0.487 OA
BRANCH  21  22
ATOM     22  C   UNL     1       4.460  -1.299  -0.155  0.00  0.00    +0.266 C 
BRANCH  22  23
ATOM     23  C   UNL     1       5.326  -0.320  -0.891  0.00  0.00    +0.008 A 
ATOM     24  C   UNL     1       6.260   0.472  -0.208  0.00  0.00    +0.010 A 
ATOM     25  C   UNL     1       7.036   1.397  -0.910  0.00  0.00    +0.020 A 
ATOM     26  C   UNL     1       6.863   1.529  -2.289  0.00  0.00    +0.111 A 
ATOM     27  N   UNL     1       5.941   0.766  -2.936  0.00  0.00    -0.263 NA
ATOM     28  C   UNL     1       5.176  -0.144  -2.275  0.00  0.00    +0.117 A 
ENDBRANCH  22  23
ENDBRANCH  21  22
ENDBRANCH  19  21
ENDBRANCH   3  15
TORSDOF 7
