REMARK  Name = 
REMARK  6 active torsions:
REMARK  status: ('A' for Active; 'I' for Inactive)
REMARK    1  A    between atoms: C_2  and  C_3
REMARK    2  A    between atoms: C_3  and  O_4
REMARK    3  A    between atoms: O_4  and  C_5
REMARK    4  A    between atoms: N_12  and  C_13
REMARK    5  A    between atoms: C_16  and  N_19
REMARK    6  A    between atoms: C_20  and  C_22
REMARK                            x       y       z     vdW  Elec       q    Type
REMARK                         _______ _______ _______ _____ _____    ______ ____
ROOT
ATOM      1  C   UNL     1      -0.704  -0.151   1.794  0.00  0.00    +0.034 A 
ATOM      2  C   UNL     1       0.475  -0.804   2.180  0.00  0.00    +0.025 A 
ATOM      3  C   UNL     1       1.664  -0.599   1.475  0.00  0.00    +0.025 A 
ATOM      4  C   UNL     1       1.687   0.243   0.350  0.00  0.00    +0.034 A 
ATOM      5  C   UNL     1       0.508   0.899  -0.034  0.00  0.00    +0.025 A 
ATOM      6  C   UNL     1      -0.681   0.694   0.671  0.00  0.00    +0.025 A 
ENDROOT
BRANCH   1   9
ATOM      7  O   UNL     1      -2.754   1.788   2.497  0.00  0.00    -0.272 OA
ATOM      8  C   UNL     1      -2.979   0.558   2.658  0.00  0.00    +0.255 C 
ATOM      9  N   UNL     1      -1.919  -0.400   2.520  0.00  0.00    -0.283 N 
ATOM     10  H   UNL     1      -2.023  -1.319   3.007  0.00  0.00    +0.155 HD
BRANCH   8  11
ATOM     11  C   UNL     1      -4.356   0.109   3.044  0.00  0.00    +0.325 C 
BRANCH  11  12
ATOM     12  O   UNL     1      -5.325   0.636   2.139  0.00  0.00    -0.481 OA
BRANCH  12  13
ATOM     13  C   UNL     1      -5.465   0.263   0.790  0.00  0.00    +0.139 A 
ATOM     14  C   UNL     1      -4.696  -0.767   0.209  0.00  0.00    +0.047 A 
ATOM     15  C   UNL     1      -4.864  -1.098  -1.139  0.00  0.00    +0.004 A 
ATOM     16  C   UNL     1      -5.799  -0.413  -1.918  0.00  0.00    +0.002 A 
ATOM     17  C   UNL     1      -6.569   0.604  -1.351  0.00  0.00    +0.023 A 
ATOM     18  C   UNL     1      -6.406   0.942  -0.002  0.00  0.00    +0.083 A 
ATOM     19 CL   UNL     1      -7.385   2.229   0.684  0.00  0.00    -0.080 Cl
ENDBRANCH  12  13
ENDBRANCH  11  12
ENDBRANCH   8  11
ENDBRANCH   1   9
BRANCH   4  20
ATOM     20  N   UNL     1       2.901   0.492  -0.379  0.00  0.00    -0.282 N 
ATOM     21  C   UNL     1       3.893  -0.516  -0.653  0.00  0.00    +0.248 C 
ATOM     22  O   UNL     1       3.677  -1.716  -0.328  0.00  0.00    -0.270 OA
ATOM     23  H   UNL     1       3.029   1.453  -0.765  0.00  0.00    +0.155 HD
BRANCH  21  24
ATOM     24  C   UNL     1       5.171  -0.175  -1.323  0.00  0.00    +0.038 A 
ATOM     25  C   UNL     1       6.323  -0.936  -1.053  0.00  0.00    +0.013 A 
ATOM     26  C   UNL     1       7.537  -0.633  -1.677  0.00  0.00    +0.002 A 
ATOM     27  C   UNL     1       7.613   0.427  -2.583  0.00  0.00    +0.020 A 
ATOM     28  C   UNL     1       6.473   1.182  -2.872  0.00  0.00    +0.042 A 
ATOM     29 CL   UNL     1       6.567   2.500  -4.027  0.00  0.00    -0.084 Cl
ATOM     30  C   UNL     1       5.256   0.882  -2.249  0.00  0.00    +0.033 A 
ENDBRANCH  21  24
ENDBRANCH   4  20
TORSDOF 6
