REMARK  Name = 
REMARK  6 active torsions:
REMARK  status: ('A' for Active; 'I' for Inactive)
REMARK    1  A    between atoms: C_1  and  C_2
REMARK    2  A    between atoms: C_2  and  C_3
REMARK    3  A    between atoms: N_5  and  C_6
REMARK    4  A    between atoms: C_9  and  S_12
REMARK    5  A    between atoms: S_12  and  N_15
REMARK    6  A    between atoms: C_19  and  C_21
REMARK                            x       y       z     vdW  Elec       q    Type
REMARK                         _______ _______ _______ _____ _____    ______ ____
ROOT
ATOM      1  S   UNL     1      -0.549   1.183  -0.248  0.00  0.00    +0.061 S 
ATOM      2  O   UNL     1      -1.023   2.006   0.919  0.00  0.00    -0.153 OA
ATOM      3  O   UNL     1      -0.921   1.879  -1.526  0.00  0.00    -0.153 OA
ENDROOT
BRANCH   1   7
ATOM      4  C   UNL     1       4.005   0.753  -0.100  0.00  0.00    +0.033 A 
ATOM      5  C   UNL     1       3.358   1.721   0.683  0.00  0.00    +0.025 A 
ATOM      6  C   UNL     1       1.967   1.854   0.644  0.00  0.00    +0.030 A 
ATOM      7  C   UNL     1       1.203   1.024  -0.187  0.00  0.00    +0.106 A 
ATOM      8  C   UNL     1       1.844   0.072  -0.988  0.00  0.00    +0.030 A 
ATOM      9  C   UNL     1       3.236  -0.059  -0.954  0.00  0.00    +0.025 A 
BRANCH   4  12
ATOM     10  C   UNL     1       6.184  -0.550  -0.275  0.00  0.00    +0.217 C 
ATOM     11  O   UNL     1       5.604  -1.669  -0.277  0.00  0.00    -0.275 OA
ATOM     12  N   UNL     1       5.440   0.661  -0.060  0.00  0.00    -0.286 N 
ATOM     13  H   UNL     1       5.978   1.511   0.226  0.00  0.00    +0.155 HD
BRANCH  10  15
ATOM     14  C   UNL     1       8.045   0.202  -1.748  0.00  0.00    +0.013 C 
ATOM     15  C   UNL     1       7.672  -0.494  -0.443  0.00  0.00    +0.093 C 
ENDBRANCH  10  15
ENDBRANCH   4  12
ENDBRANCH   1   7
BRANCH   1  16
ATOM     16  N   UNL     1      -1.272  -0.412  -0.189  0.00  0.00    -0.172 NA
ATOM     17  C   UNL     1      -1.059  -1.056   1.126  0.00  0.00    +0.137 C 
ATOM     18  C   UNL     1      -2.338  -1.130   1.979  0.00  0.00    +0.178 C 
ATOM     19  O   UNL     1      -3.112   0.045   1.859  0.00  0.00    -0.369 OA
ATOM     20  C   UNL     1      -3.570   0.263   0.529  0.00  0.00    +0.164 C 
ATOM     21  C   UNL     1      -2.692  -0.384  -0.578  0.00  0.00    +0.146 C 
BRANCH  20  22
ATOM     22  C   UNL     1      -5.043  -0.085   0.412  0.00  0.00    -0.018 A 
ATOM     23  C   UNL     1      -6.002   0.946   0.397  0.00  0.00    +0.007 A 
ATOM     24  C   UNL     1      -7.365   0.649   0.321  0.00  0.00    +0.020 A 
ATOM     25  C   UNL     1      -7.792  -0.680   0.269  0.00  0.00    +0.041 A 
ATOM     26 CL   UNL     1      -9.502  -1.046   0.156  0.00  0.00    -0.084 Cl
ATOM     27  C   UNL     1      -6.852  -1.714   0.299  0.00  0.00    +0.020 A 
ATOM     28  C   UNL     1      -5.486  -1.423   0.380  0.00  0.00    +0.007 A 
ENDBRANCH  20  22
ENDBRANCH   1  16
TORSDOF 5
