REMARK  Name = 
REMARK  11 active torsions:
REMARK  status: ('A' for Active; 'I' for Inactive)
REMARK    1  A    between atoms: C_1  and  C_2
REMARK    2  A    between atoms: C_2  and  O_3
REMARK    3  A    between atoms: O_3  and  C_4
REMARK    4  A    between atoms: C_7  and  O_10
REMARK    5  A    between atoms: O_10  and  C_11
REMARK    6  A    between atoms: C_11  and  C_12
REMARK    7  A    between atoms: N_14  and  C_15
REMARK    8  A    between atoms: C_15  and  C_16
REMARK    9  A    between atoms: C_15  and  C_20
REMARK   10  A    between atoms: C_16  and  C_17
REMARK   11  A    between atoms: C_17  and  O_19
REMARK                            x       y       z     vdW  Elec       q    Type
REMARK                         _______ _______ _______ _____ _____    ______ ____
ROOT
ATOM      1  C   UNL     1      -1.823   0.765  -0.037  0.00  0.00    +0.251 C 
ATOM      2  O   UNL     1      -2.215   1.689  -0.801  0.00  0.00    -0.272 OA
ATOM      3  N   UNL     1      -2.643  -0.392   0.181  0.00  0.00    -0.305 N 
ATOM      4  H   UNL     1      -2.267  -1.161   0.779  0.00  0.00    +0.149 HD
ENDROOT
BRANCH   1   5
ATOM      5  C   UNL     1      -0.470   0.859   0.590  0.00  0.00    +0.324 C 
BRANCH   5   6
ATOM      6  O   UNL     1       0.506   0.387  -0.335  0.00  0.00    -0.483 OA
BRANCH   6  10
ATOM      7  C   UNL     1       4.678   0.303   0.304  0.00  0.00    +0.121 A 
ATOM      8  C   UNL     1       4.121  -0.104  -0.923  0.00  0.00    +0.049 A 
ATOM      9  C   UNL     1       2.737  -0.072  -1.113  0.00  0.00    +0.049 A 
ATOM     10  C   UNL     1       1.887   0.365  -0.090  0.00  0.00    +0.121 A 
ATOM     11  C   UNL     1       2.442   0.766   1.140  0.00  0.00    +0.049 A 
ATOM     12  C   UNL     1       3.827   0.732   1.330  0.00  0.00    +0.049 A 
BRANCH   7  13
ATOM     13  O   UNL     1       6.060   0.297   0.543  0.00  0.00    -0.492 OA
BRANCH  13  15
ATOM     14  C   UNL     1       8.427   0.038   0.195  0.00  0.00    +0.048 C 
ATOM     15  C   UNL     1       7.040  -0.110  -0.409  0.00  0.00    +0.225 C 
ENDBRANCH  13  15
ENDBRANCH   7  13
ENDBRANCH   6  10
ENDBRANCH   5   6
ENDBRANCH   1   5
BRANCH   3  16
ATOM     16  C   UNL     1      -3.976  -0.523  -0.418  0.00  0.00    +0.120 C 
BRANCH  16  17
ATOM     17  C   UNL     1      -4.921   0.460   0.218  0.00  0.00    +0.010 A 
ATOM     18  C   UNL     1      -5.810   1.285  -0.461  0.00  0.00    +0.013 A 
ATOM     19  C   UNL     1      -6.589   2.078   0.392  0.00  0.00    +0.008 A 
ATOM     20  C   UNL     1      -6.324   1.873   1.741  0.00  0.00    +0.045 A 
ATOM     21  S   UNL     1      -5.121   0.704   1.874  0.00  0.00    -0.100 S 
ENDBRANCH  16  17
BRANCH  16  22
ATOM     22  C   UNL     1      -4.522  -1.952  -0.252  0.00  0.00    +0.148 C 
BRANCH  22  23
ATOM     23  C   UNL     1      -3.691  -2.942  -1.010  0.00  0.00    +0.307 C 
ATOM     24  O   UNL     1      -2.906  -3.711  -0.396  0.00  0.00    -0.251 OA
BRANCH  23  25
ATOM     25  O   UNL     1      -3.769  -2.992  -2.398  0.00  0.00    -0.481 OA
ATOM     26  H   UNL     1      -3.209  -3.651  -2.926  0.00  0.00    +0.295 HD
ENDBRANCH  23  25
ENDBRANCH  22  23
ENDBRANCH  16  22
ENDBRANCH   3  16
TORSDOF 10
