REMARK  Name = 
REMARK  9 active torsions:
REMARK  status: ('A' for Active; 'I' for Inactive)
REMARK    1  A    between atoms: C_1  and  C_2
REMARK    2  A    between atoms: C_6  and  C_9
REMARK    3  A    between atoms: C_7  and  C_8
REMARK    4  A    between atoms: C_9  and  C_10
REMARK    5  A    between atoms: C_9  and  N_11
REMARK    6  A    between atoms: C_12  and  C_14
REMARK    7  A    between atoms: C_19  and  O_20
REMARK    8  A    between atoms: O_20  and  C_21
REMARK    9  A    between atoms: C_21  and  C_22
REMARK                            x       y       z     vdW  Elec       q    Type
REMARK                         _______ _______ _______ _____ _____    ______ ____
ROOT
ATOM      1  N   UNL     1       0.157  -0.974  -0.807  0.00  0.00    -0.305 N 
ATOM      2  C   UNL     1      -0.512  -1.686   0.248  0.00  0.00    +0.248 C 
ATOM      3  O   UNL     1       0.149  -2.446   1.008  0.00  0.00    -0.270 OA
ATOM      4  H   UNL     1      -0.425  -0.465  -1.510  0.00  0.00    +0.150 HD
ENDROOT
BRANCH   2   5
ATOM      5  C   UNL     1      -1.982  -1.593   0.421  0.00  0.00    +0.078 A 
ATOM      6  C   UNL     1      -2.696  -2.752   0.772  0.00  0.00    +0.017 A 
ATOM      7  C   UNL     1      -4.084  -2.717   0.912  0.00  0.00    +0.001 A 
ATOM      8  C   UNL     1      -4.776  -1.524   0.710  0.00  0.00    +0.004 A 
ATOM      9  C   UNL     1      -4.082  -0.359   0.380  0.00  0.00    +0.046 A 
ATOM     10  C   UNL     1      -2.678  -0.375   0.244  0.00  0.00    +0.133 A 
BRANCH  10  11
ATOM     11  O   UNL     1      -1.950   0.796  -0.028  0.00  0.00    -0.482 OA
BRANCH  11  12
ATOM     12  C   UNL     1      -2.506   2.072  -0.345  0.00  0.00    +0.324 C 
BRANCH  12  13
ATOM     13  C   UNL     1      -3.085   2.059  -1.726  0.00  0.00    +0.248 C 
ATOM     14  N   UNL     1      -2.247   1.809  -2.854  0.00  0.00    -0.327 N 
ATOM     15  O   UNL     1      -4.315   2.269  -1.895  0.00  0.00    -0.272 OA
ATOM     16  H   UNL     1      -1.223   1.647  -2.729  0.00  0.00    +0.145 HD
ATOM     17  H   UNL     1      -2.649   1.792  -3.817  0.00  0.00    +0.145 HD
ENDBRANCH  12  13
ENDBRANCH  11  12
ENDBRANCH  10  11
ENDBRANCH   2   5
BRANCH   1  18
ATOM     18  C   UNL     1       1.589  -1.148  -1.077  0.00  0.00    +0.101 C 
ATOM     19  C   UNL     1       2.006  -0.475  -2.391  0.00  0.00    +0.033 C 
BRANCH  18  25
ATOM     20  C   UNL     1       2.979   2.114   2.701  0.00  0.00    +0.044 C 
ATOM     21  C   UNL     1       3.146   0.859   1.880  0.00  0.00    -0.047 A 
ATOM     22  C   UNL     1       4.197  -0.010   2.205  0.00  0.00    +0.003 A 
ATOM     23  C   UNL     1       4.392  -1.183   1.488  0.00  0.00    +0.001 A 
ATOM     24  C   UNL     1       3.537  -1.515   0.444  0.00  0.00    +0.006 A 
ATOM     25  C   UNL     1       2.465  -0.677   0.083  0.00  0.00    -0.024 A 
ATOM     26  C   UNL     1       2.291   0.560   0.782  0.00  0.00    -0.043 A 
ATOM     27  C   UNL     1       1.179   1.530   0.441  0.00  0.00    +0.044 C 
ENDBRANCH  18  25
ENDBRANCH   1  18
TORSDOF 6
