REMARK  Name = 
REMARK  7 active torsions:
REMARK  status: ('A' for Active; 'I' for Inactive)
REMARK    1  A    between atoms: C_1  and  C_2
REMARK    2  A    between atoms: C_5  and  C_7
REMARK    3  A    between atoms: N_9  and  C_10
REMARK    4  A    between atoms: C_10  and  C_11
REMARK    5  A    between atoms: C_10  and  C_15
REMARK    6  A    between atoms: C_11  and  C_12
REMARK    7  A    between atoms: C_12  and  O_14
REMARK                            x       y       z     vdW  Elec       q    Type
REMARK                         _______ _______ _______ _____ _____    ______ ____
ROOT
ATOM      1  C   UNL     1      -1.417  -0.769   0.175  0.00  0.00    +0.121 C 
ENDROOT
BRANCH   1   2
ATOM      2  C   UNL     1      -1.923   0.569   0.647  0.00  0.00    +0.011 A 
ATOM      3  C   UNL     1      -2.624   0.802   1.823  0.00  0.00    +0.013 A 
ATOM      4  C   UNL     1      -3.009   2.139   1.981  0.00  0.00    +0.008 A 
ATOM      5  C   UNL     1      -2.621   2.959   0.929  0.00  0.00    +0.045 A 
ATOM      6  S   UNL     1      -1.800   2.020  -0.199  0.00  0.00    -0.100 S 
ENDBRANCH   1   2
BRANCH   1   9
ATOM      7  C   UNL     1       1.053  -0.430   0.652  0.00  0.00    +0.280 C 
ATOM      8  O   UNL     1       0.827  -0.389   1.893  0.00  0.00    -0.267 OA
ATOM      9  N   UNL     1      -0.026  -0.640  -0.271  0.00  0.00    -0.301 N 
ATOM     10  H   UNL     1       0.190  -0.683  -1.293  0.00  0.00    +0.150 HD
BRANCH   7  15
ATOM     11  C   UNL     1       4.814  -0.078  -2.486  0.00  0.00    +0.086 C 
ATOM     12  C   UNL     1       4.057  -0.099  -1.201  0.00  0.00    +0.103 A 
ATOM     13  C   UNL     1       4.606   0.049   0.057  0.00  0.00    +0.045 A 
ATOM     14  C   UNL     1       3.550  -0.053   0.939  0.00  0.00    +0.055 A 
ATOM     15  C   UNL     1       2.427  -0.260   0.158  0.00  0.00    +0.189 A 
ATOM     16  O   UNL     1       2.761  -0.284  -1.112  0.00  0.00    -0.455 OA
ENDBRANCH   7  15
ENDBRANCH   1   9
BRANCH   1  17
ATOM     17  C   UNL     1      -2.296  -1.315  -0.965  0.00  0.00    +0.148 C 
BRANCH  17  18
ATOM     18  C   UNL     1      -3.691  -1.599  -0.499  0.00  0.00    +0.307 C 
ATOM     19  O   UNL     1      -3.955  -2.689   0.077  0.00  0.00    -0.251 OA
BRANCH  18  20
ATOM     20  O   UNL     1      -4.686  -0.641  -0.664  0.00  0.00    -0.481 OA
ATOM     21  H   UNL     1      -5.630  -0.810  -0.336  0.00  0.00    +0.295 HD
ENDBRANCH  18  20
ENDBRANCH  17  18
ENDBRANCH   1  17
TORSDOF 6
