REMARK  Name = 
REMARK  5 active torsions:
REMARK  status: ('A' for Active; 'I' for Inactive)
REMARK    1  A    between atoms: C_2  and  C_4
REMARK    2  A    between atoms: C_4  and  O_5
REMARK    3  A    between atoms: C_4  and  C_6
REMARK    4  A    between atoms: N_9  and  C_10
REMARK    5  A    between atoms: C_10  and  C_11
REMARK                            x       y       z     vdW  Elec       q    Type
REMARK                         _______ _______ _______ _____ _____    ______ ____
ROOT
ATOM      1  C   UNL     1       1.827  -0.679  -0.287  0.00  0.00    +0.029 C 
ATOM      2  C   UNL     1       1.454   0.072   1.002  0.00  0.00    +0.022 C 
ATOM      3  C   UNL     1      -0.039   0.461   0.999  0.00  0.00    +0.085 C 
ATOM      4  N   UNL     1      -0.551   0.902  -0.328  0.00  0.00    -0.298 NA
ATOM      5  C   UNL     1       0.516   1.312  -1.263  0.00  0.00    +0.085 C 
ATOM      6  C   UNL     1       1.521   0.178  -1.544  0.00  0.00    +0.022 C 
ENDROOT
BRANCH   1   7
ATOM      7  C   UNL     1       3.277  -1.225  -0.256  0.00  0.00    +0.203 C 
BRANCH   7   9
ATOM      8  N   UNL     1       4.740   0.230   1.245  0.00  0.00    -0.327 N 
ATOM      9  C   UNL     1       4.315  -0.141  -0.067  0.00  0.00    +0.239 C 
ATOM     10  O   UNL     1       4.807   0.448  -1.067  0.00  0.00    -0.273 OA
ATOM     11  H   UNL     1       4.348  -0.244   2.088  0.00  0.00    +0.145 HD
ATOM     12  H   UNL     1       5.450   0.985   1.374  0.00  0.00    +0.145 HD
ENDBRANCH   7   9
BRANCH   7  13
ATOM     13  O   UNL     1       3.534  -1.939  -1.438  0.00  0.00    -0.382 OA
ATOM     14  H   UNL     1       4.339  -2.496  -1.271  0.00  0.00    +0.210 HD
ENDBRANCH   7  13
ENDBRANCH   1   7
BRANCH   4  15
ATOM     15  C   UNL     1      -1.485  -0.069  -0.939  0.00  0.00    +0.119 C 
BRANCH  15  16
ATOM     16  C   UNL     1      -2.828   0.003  -0.260  0.00  0.00    -0.030 A 
ATOM     17  C   UNL     1      -3.301  -1.073   0.509  0.00  0.00    +0.008 A 
ATOM     18  C   UNL     1      -4.543  -0.991   1.146  0.00  0.00    +0.041 A 
ATOM     19  C   UNL     1      -5.320   0.164   1.021  0.00  0.00    +0.158 A 
ATOM     20  F   UNL     1      -6.524   0.239   1.641  0.00  0.00    -0.202 F 
ATOM     21  C   UNL     1      -4.855   1.240   0.258  0.00  0.00    +0.159 A 
ATOM     22  F   UNL     1      -5.607   2.362   0.137  0.00  0.00    -0.202 F 
ATOM     23  C   UNL     1      -3.613   1.161  -0.380  0.00  0.00    +0.046 A 
ENDBRANCH  15  16
ENDBRANCH   4  15
TORSDOF 5
