REMARK  Name = 
REMARK  7 active torsions:
REMARK  status: ('A' for Active; 'I' for Inactive)
REMARK    1  A    between atoms: C_2  and  C_3
REMARK    2  A    between atoms: C_6  and  C_9
REMARK    3  A    between atoms: C_12  and  O_15
REMARK    4  A    between atoms: O_15  and  C_16
REMARK    5  A    between atoms: C_16  and  C_17
REMARK    6  A    between atoms: N_19  and  C_20
REMARK    7  A    between atoms: C_23  and  C_26
REMARK                            x       y       z     vdW  Elec       q    Type
REMARK                         _______ _______ _______ _____ _____    ______ ____
ROOT
ATOM      1  C   UNL     1      -0.811  -0.519  -0.863  0.00  0.00    +0.324 C 
ENDROOT
BRANCH   1   2
ATOM      2  C   UNL     1      -2.219  -0.799  -0.442  0.00  0.00    +0.255 C 
ATOM      3  O   UNL     1      -2.455  -1.794   0.296  0.00  0.00    -0.272 OA
ATOM      4  N   UNL     1      -3.296   0.004  -0.950  0.00  0.00    -0.283 N 
ATOM      5  H   UNL     1      -3.107   0.599  -1.788  0.00  0.00    +0.155 HD
BRANCH   4   6
ATOM      6  C   UNL     1      -4.643  -0.044  -0.448  0.00  0.00    +0.034 A 
ATOM      7  C   UNL     1      -4.913  -0.278   0.911  0.00  0.00    +0.024 A 
ATOM      8  C   UNL     1      -6.230  -0.297   1.378  0.00  0.00    +0.015 A 
ATOM      9  C   UNL     1      -7.304  -0.062   0.501  0.00  0.00    +0.037 A 
ATOM     10  C   UNL     1      -7.030   0.184  -0.856  0.00  0.00    +0.015 A 
ATOM     11  C   UNL     1      -5.711   0.203  -1.321  0.00  0.00    +0.024 A 
BRANCH   9  12
ATOM     12  C   UNL     1      -8.697  -0.091   1.012  0.00  0.00    +0.242 C 
ATOM     13  N   UNL     1      -9.759   0.578   0.328  0.00  0.00    -0.325 N 
ATOM     14  O   UNL     1      -8.955  -0.706   2.082  0.00  0.00    -0.270 OA
ATOM     15  H   UNL     1     -10.739   0.491   0.678  0.00  0.00    +0.145 HD
ATOM     16  H   UNL     1      -9.579   1.229  -0.467  0.00  0.00    +0.145 HD
ENDBRANCH   9  12
ENDBRANCH   4   6
ENDBRANCH   1   2
BRANCH   1  17
ATOM     17  O   UNL     1       0.053  -0.610   0.267  0.00  0.00    -0.483 OA
BRANCH  17  21
ATOM     18  C   UNL     1       4.239  -0.037   0.232  0.00  0.00    -0.018 A 
ATOM     19  C   UNL     1       3.507   0.082  -0.963  0.00  0.00    +0.012 A 
ATOM     20  C   UNL     1       2.122  -0.105  -0.970  0.00  0.00    +0.046 A 
ATOM     21  C   UNL     1       1.441  -0.414   0.222  0.00  0.00    +0.121 A 
ATOM     22  C   UNL     1       2.168  -0.533   1.411  0.00  0.00    +0.046 A 
ATOM     23  C   UNL     1       3.553  -0.347   1.419  0.00  0.00    +0.012 A 
BRANCH  18  27
ATOM     24  C   UNL     1       8.502   0.535   0.254  0.00  0.00    +0.052 A 
ATOM     25  C   UNL     1       7.927  -0.488   1.015  0.00  0.00    +0.019 A 
ATOM     26  C   UNL     1       6.542  -0.675   1.009  0.00  0.00    +0.010 A 
ATOM     27  C   UNL     1       5.711   0.160   0.239  0.00  0.00    -0.018 A 
ATOM     28  C   UNL     1       6.299   1.187  -0.523  0.00  0.00    +0.010 A 
ATOM     29  C   UNL     1       7.685   1.373  -0.515  0.00  0.00    +0.019 A 
BRANCH  24  31
ATOM     30  N   UNL     1      11.075   0.881   0.267  0.00  0.00    -0.191 NA
ATOM     31  C   UNL     1       9.928   0.727   0.261  0.00  0.00    +0.099 C 
ENDBRANCH  24  31
ENDBRANCH  18  27
ENDBRANCH  17  21
ENDBRANCH   1  17
TORSDOF 7
