REMARK  Name = 
REMARK  8 active torsions:
REMARK  status: ('A' for Active; 'I' for Inactive)
REMARK    1  A    between atoms: C_2  and  C_4
REMARK    2  A    between atoms: C_7  and  O_10
REMARK    3  A    between atoms: O_10  and  C_11
REMARK    4  A    between atoms: C_11  and  C_12
REMARK    5  A    between atoms: N_14  and  C_15
REMARK    6  A    between atoms: C_15  and  C_16
REMARK    7  A    between atoms: C_16  and  C_17
REMARK    8  A    between atoms: C_17  and  C_18
REMARK                            x       y       z     vdW  Elec       q    Type
REMARK                         _______ _______ _______ _____ _____    ______ ____
ROOT
ATOM      1  C   UNL     1       0.311  -0.258  -2.413  0.00  0.00    +0.251 C 
ATOM      2  O   UNL     1       0.365   0.570  -3.365  0.00  0.00    -0.272 OA
ATOM      3  N   UNL     1       1.496  -0.608  -1.688  0.00  0.00    -0.313 N 
ATOM      4  H   UNL     1       1.437  -1.342  -0.947  0.00  0.00    +0.149 HD
ENDROOT
BRANCH   1   5
ATOM      5  C   UNL     1      -1.010  -0.836  -2.022  0.00  0.00    +0.324 C 
BRANCH   5   6
ATOM      6  O   UNL     1      -1.667   0.065  -1.139  0.00  0.00    -0.483 OA
BRANCH   6  10
ATOM      7  C   UNL     1      -5.464  -0.522   0.623  0.00  0.00    +0.037 A 
ATOM      8  C   UNL     1      -4.739   0.669   0.824  0.00  0.00    +0.016 A 
ATOM      9  C   UNL     1      -3.481   0.840   0.238  0.00  0.00    +0.046 A 
ATOM     10  C   UNL     1      -2.929  -0.162  -0.571  0.00  0.00    +0.121 A 
ATOM     11  C   UNL     1      -3.651  -1.349  -0.779  0.00  0.00    +0.046 A 
ATOM     12  C   UNL     1      -4.905  -1.525  -0.186  0.00  0.00    +0.016 A 
BRANCH   7  14
ATOM     13  N   UNL     1      -7.251   0.058   2.337  0.00  0.00    -0.325 N 
ATOM     14  C   UNL     1      -6.807  -0.719   1.223  0.00  0.00    +0.242 C 
ATOM     15  O   UNL     1      -7.579  -1.598   0.749  0.00  0.00    -0.270 OA
ATOM     16  H   UNL     1      -6.593   0.645   2.894  0.00  0.00    +0.145 HD
ATOM     17  H   UNL     1      -8.227  -0.052   2.692  0.00  0.00    +0.145 HD
ENDBRANCH   7  14
ENDBRANCH   6  10
ENDBRANCH   5   6
ENDBRANCH   1   5
BRANCH   3  18
ATOM     18  C   UNL     1       2.803  -0.028  -1.991  0.00  0.00    +0.104 C 
BRANCH  18  19
ATOM     19  C   UNL     1       2.900   1.425  -1.494  0.00  0.00    +0.023 C 
BRANCH  19  20
ATOM     20  C   UNL     1       2.688   1.566   0.022  0.00  0.00    +0.036 C 
BRANCH  20  21
ATOM     21  C   UNL     1       3.751   0.850   0.814  0.00  0.00    -0.047 A 
ATOM     22  C   UNL     1       3.463  -0.367   1.452  0.00  0.00    +0.005 A 
ATOM     23  C   UNL     1       4.459  -1.042   2.166  0.00  0.00    +0.020 A 
ATOM     24  C   UNL     1       5.751  -0.510   2.244  0.00  0.00    +0.041 A 
ATOM     25 CL   UNL     1       7.002  -1.363   3.128  0.00  0.00    -0.084 Cl
ATOM     26  C   UNL     1       6.045   0.700   1.611  0.00  0.00    +0.020 A 
ATOM     27  C   UNL     1       5.050   1.379   0.900  0.00  0.00    +0.005 A 
ENDBRANCH  20  21
ENDBRANCH  19  20
ENDBRANCH  18  19
ENDBRANCH   3  18
TORSDOF 8
