REMARK  Name = 
REMARK  8 active torsions:
REMARK  status: ('A' for Active; 'I' for Inactive)
REMARK    1  A    between atoms: C_1  and  C_2
REMARK    2  A    between atoms: C_2  and  C_4
REMARK    3  A    between atoms: C_7  and  N_10
REMARK    4  A    between atoms: C_11  and  C_13
REMARK    5  A    between atoms: C_13  and  C_14
REMARK    6  A    between atoms: C_14  and  C_15
REMARK    7  A    between atoms: C_14  and  C_18
REMARK    8  A    between atoms: C_15  and  O_17
REMARK                            x       y       z     vdW  Elec       q    Type
REMARK                         _______ _______ _______ _____ _____    ______ ____
ROOT
ATOM      1  N   UNL     1       0.060  -0.812   1.336  0.00  0.00    -0.285 N 
ATOM      2  C   UNL     1      -0.277  -2.165   0.992  0.00  0.00    +0.218 C 
ATOM      3  O   UNL     1       0.619  -2.976   0.634  0.00  0.00    -0.275 OA
ATOM      4  H   UNL     1      -0.582  -0.300   1.983  0.00  0.00    +0.155 HD
ENDROOT
BRANCH   1   8
ATOM      5  C   UNL     1       3.404   1.359  -0.177  0.00  0.00    +0.017 A 
ATOM      6  C   UNL     1       2.830   1.682   1.068  0.00  0.00    +0.013 A 
ATOM      7  C   UNL     1       1.739   0.957   1.557  0.00  0.00    +0.024 A 
ATOM      8  C   UNL     1       1.208  -0.113   0.826  0.00  0.00    +0.033 A 
ATOM      9  C   UNL     1       1.765  -0.428  -0.424  0.00  0.00    +0.024 A 
ATOM     10  C   UNL     1       2.853   0.296  -0.917  0.00  0.00    +0.013 A 
BRANCH   5  12
ATOM     11  C   UNL     1       5.173   3.269   0.030  0.00  0.00    +0.091 C 
ATOM     12  C   UNL     1       4.563   2.121  -0.716  0.00  0.00    +0.160 C 
ATOM     13  O   UNL     1       5.056   1.803  -1.833  0.00  0.00    -0.292 OA
ENDBRANCH   5  12
ENDBRANCH   1   8
BRANCH   2  14
ATOM     14  C   UNL     1      -1.710  -2.610   1.024  0.00  0.00    +0.115 C 
BRANCH  14  15
ATOM     15  C   UNL     1      -2.400  -2.352  -0.332  0.00  0.00    +0.136 C 
BRANCH  15  16
ATOM     16  C   UNL     1      -2.388  -0.879  -0.699  0.00  0.00    -0.033 A 
ATOM     17  C   UNL     1      -3.085   0.069   0.077  0.00  0.00    +0.004 A 
ATOM     18  C   UNL     1      -3.014   1.429  -0.237  0.00  0.00    +0.000 A 
ATOM     19  C   UNL     1      -2.247   1.859  -1.322  0.00  0.00    +0.000 A 
ATOM     20  C   UNL     1      -1.551   0.929  -2.097  0.00  0.00    +0.000 A 
ATOM     21  C   UNL     1      -1.620  -0.432  -1.790  0.00  0.00    +0.004 A 
ENDBRANCH  15  16
BRANCH  15  22
ATOM     22  C   UNL     1      -3.810  -2.881  -0.340  0.00  0.00    +0.313 C 
ATOM     23  O   UNL     1      -4.287  -3.372  -1.398  0.00  0.00    -0.250 OA
BRANCH  22  24
ATOM     24  O   UNL     1      -4.608  -2.789   0.798  0.00  0.00    -0.480 OA
ATOM     25  H   UNL     1      -5.563  -3.126   0.792  0.00  0.00    +0.295 HD
ENDBRANCH  22  24
ENDBRANCH  15  22
ENDBRANCH  14  15
ENDBRANCH   2  14
TORSDOF 7
