REMARK  Name = 
REMARK  10 active torsions:
REMARK  status: ('A' for Active; 'I' for Inactive)
REMARK    1  A    between atoms: C_1  and  O_2
REMARK    2  A    between atoms: O_2  and  C_3
REMARK    3  A    between atoms: C_3  and  C_4
REMARK    4  A    between atoms: C_3  and  C_5
REMARK    5  A    between atoms: C_3  and  C_19
REMARK    6  A    between atoms: N_7  and  CA_8
REMARK    7  A    between atoms: CA_8  and  CB_9
REMARK    8  A    between atoms: CA_8  and  C_16
REMARK    9  A    between atoms: CB_9  and  CG_10
REMARK   10  A    between atoms: C_16  and  OXT_18
REMARK                            x       y       z     vdW  Elec       q    Type
REMARK                         _______ _______ _______ _____ _____    ______ ____
ROOT
ATOM      1  C   UNK A   0      -0.923  -0.215  -0.294  0.00  0.00    +0.250 C 
ATOM      2  O   UNK A   0      -0.480   0.829  -0.849  0.00  0.00    -0.272 OA
ATOM      3  N   PHE A   1      -0.022  -1.294   0.020  0.00  0.00    -0.299 N 
ATOM      4  H   PHE A   1      -0.428  -2.218   0.285  0.00  0.00    +0.150 HD
ENDROOT
BRANCH   1   5
ATOM      5  C   UNK A   0      -2.433  -0.376  -0.067  0.00  0.00    +0.166 C 
ATOM      6  C   UNK A   0      -2.666  -0.857   1.379  0.00  0.00    +0.057 C 
BRANCH   5   7
ATOM      7  C   UNK A   0      -3.203   0.951  -0.207  0.00  0.00    -0.007 A 
ATOM      8  C   UNK A   0      -2.729   2.124   0.422  0.00  0.00    +0.007 A 
ATOM      9  C   UNK A   0      -3.453   3.318   0.350  0.00  0.00    +0.000 A 
ATOM     10  C   UNK A   0      -4.677   3.355  -0.316  0.00  0.00    +0.000 A 
ATOM     11  C   UNK A   0      -5.186   2.195  -0.903  0.00  0.00    +0.000 A 
ATOM     12  C   UNK A   0      -4.466   0.999  -0.838  0.00  0.00    +0.007 A 
ENDBRANCH   5   7
BRANCH   5  14
ATOM     13  C   UNK A   0      -2.619  -1.206  -2.286  0.00  0.00    +0.195 C 
ATOM     14  O   UNK A   0      -2.967  -1.386  -0.923  0.00  0.00    -0.363 OA
ENDBRANCH   5  14
ENDBRANCH   1   5
BRANCH   3  15
ATOM     15  CA  PHE A   1       1.441  -1.217  -0.068  0.00  0.00    +0.186 C 
BRANCH  15  16
ATOM     16  C   PHE A   1       1.884  -1.253  -1.506  0.00  0.00    +0.326 C 
ATOM     17  O   PHE A   1       1.635  -0.291  -2.283  0.00  0.00    -0.249 OA
BRANCH  16  18
ATOM     18  OXT PHE A   1       2.566  -2.367  -1.986  0.00  0.00    -0.479 OA
ATOM     19  HXT PHE A   1       2.864  -2.418  -2.955  0.00  0.00    +0.295 HD
ENDBRANCH  16  18
ENDBRANCH  15  16
BRANCH  15  20
ATOM     20  CB  PHE A   1       1.998   0.004   0.697  0.00  0.00    +0.069 C 
BRANCH  20  21
ATOM     21  CG  PHE A   1       3.470  -0.151   0.987  0.00  0.00    -0.045 A 
ATOM     22  CD1 PHE A   1       3.897  -0.715   2.204  0.00  0.00    +0.004 A 
ATOM     23  CE1 PHE A   1       5.261  -0.889   2.459  0.00  0.00    +0.000 A 
ATOM     24  CZ  PHE A   1       6.207  -0.517   1.498  0.00  0.00    +0.000 A 
ATOM     25  CE2 PHE A   1       5.790   0.036   0.283  0.00  0.00    +0.000 A 
ATOM     26  CD2 PHE A   1       4.427   0.218   0.026  0.00  0.00    +0.004 A 
ENDBRANCH  20  21
ENDBRANCH  15  20
ENDBRANCH   3  15
TORSDOF 8
