REMARK  Name = 
REMARK  5 active torsions:
REMARK  status: ('A' for Active; 'I' for Inactive)
REMARK    1  A    between atoms: C_1  and  C_2
REMARK    2  A    between atoms: C_11  and  C_12
REMARK    3  A    between atoms: N_14  and  C_15
REMARK    4  A    between atoms: C_20  and  C_21
REMARK    5  A    between atoms: C_21  and  O_23
REMARK                            x       y       z     vdW  Elec       q    Type
REMARK                         _______ _______ _______ _____ _____    ______ ____
ROOT
ATOM      1  C   UNL     1      -0.256   1.473  -0.349  0.00  0.00    +0.262 C 
ATOM      2  O   UNL     1      -0.684   2.648  -0.518  0.00  0.00    -0.271 OA
ATOM      3  N   UNL     1      -1.177   0.373  -0.259  0.00  0.00    -0.282 N 
ATOM      4  H   UNL     1      -0.799  -0.600  -0.239  0.00  0.00    +0.155 HD
ENDROOT
BRANCH   1  15
ATOM      5  C   UNL     1       0.945   0.407   2.195  0.00  0.00    +0.056 C 
ATOM      6  C   UNL     1       1.725   1.326   1.245  0.00  0.00    +0.220 C 
ATOM      7  O   UNL     1       3.113   0.972   1.292  0.00  0.00    -0.481 OA
ATOM      8  C   UNL     1       3.629  -0.061   0.500  0.00  0.00    +0.163 A 
ATOM      9  C   UNL     1       4.902  -0.583   0.747  0.00  0.00    +0.049 A 
ATOM     10  C   UNL     1       5.383  -1.641  -0.034  0.00  0.00    +0.004 A 
ATOM     11  C   UNL     1       4.593  -2.172  -1.061  0.00  0.00    +0.004 A 
ATOM     12  C   UNL     1       3.324  -1.640  -1.318  0.00  0.00    +0.049 A 
ATOM     13  C   UNL     1       2.850  -0.574  -0.548  0.00  0.00    +0.163 A 
ATOM     14  O   UNL     1       1.599  -0.005  -0.808  0.00  0.00    -0.472 OA
ATOM     15  C   UNL     1       1.226   1.246  -0.222  0.00  0.00    +0.299 C 
ENDBRANCH   1  15
BRANCH   3  16
ATOM     16  C   UNL     1      -2.600   0.549  -0.177  0.00  0.00    +0.048 A 
ATOM     17  C   UNL     1      -3.129   1.467   0.747  0.00  0.00    +0.024 A 
ATOM     18  C   UNL     1      -4.508   1.596   0.912  0.00  0.00    +0.002 A 
ATOM     19  C   UNL     1      -5.377   0.801   0.167  0.00  0.00    +0.001 A 
ATOM     20  C   UNL     1      -4.871  -0.121  -0.750  0.00  0.00    +0.017 A 
ATOM     21  C   UNL     1      -3.483  -0.257  -0.943  0.00  0.00    +0.080 A 
BRANCH  21  22
ATOM     22  C   UNL     1      -2.999  -1.215  -1.968  0.00  0.00    +0.339 C 
ATOM     23  O   UNL     1      -1.851  -1.096  -2.474  0.00  0.00    -0.245 OA
BRANCH  22  24
ATOM     24  O   UNL     1      -3.831  -2.240  -2.410  0.00  0.00    -0.477 OA
ATOM     25  H   UNL     1      -3.520  -2.895  -3.118  0.00  0.00    +0.295 HD
ENDBRANCH  22  24
ENDBRANCH  21  22
ENDBRANCH   3  16
TORSDOF 4
