REMARK  Name = 
REMARK  10 active torsions:
REMARK  status: ('A' for Active; 'I' for Inactive)
REMARK    1  A    between atoms: C_1  and  C_2
REMARK    2  A    between atoms: C_2  and  C_3
REMARK    3  A    between atoms: C_2  and  O_4
REMARK    4  A    between atoms: O_4  and  C_5
REMARK    5  A    between atoms: C_10  and  C_11
REMARK    6  A    between atoms: N_13  and  C_14
REMARK    7  A    between atoms: C_14  and  C_15
REMARK    8  A    between atoms: C_15  and  C_16
REMARK    9  A    between atoms: C_15  and  C_19
REMARK   10  A    between atoms: C_16  and  O_18
REMARK                            x       y       z     vdW  Elec       q    Type
REMARK                         _______ _______ _______ _____ _____    ______ ____
ROOT
ATOM      1  C   UNL     1      -0.422   0.036  -2.491  0.00  0.00    +0.248 C 
ATOM      2  O   UNL     1       0.269   0.683  -3.326  0.00  0.00    -0.270 OA
ATOM      3  N   UNL     1       0.084  -0.182  -1.166  0.00  0.00    -0.310 N 
ATOM      4  H   UNL     1      -0.427  -0.834  -0.528  0.00  0.00    +0.149 HD
ENDROOT
BRANCH   1  10
ATOM      5  C   UNL     1      -2.845  -0.539  -2.053  0.00  0.00    +0.133 A 
ATOM      6  C   UNL     1      -4.051  -1.115  -2.504  0.00  0.00    +0.046 A 
ATOM      7  C   UNL     1      -4.145  -1.652  -3.789  0.00  0.00    +0.004 A 
ATOM      8  C   UNL     1      -3.045  -1.619  -4.644  0.00  0.00    +0.001 A 
ATOM      9  C   UNL     1      -1.843  -1.058  -4.213  0.00  0.00    +0.017 A 
ATOM     10  C   UNL     1      -1.723  -0.530  -2.915  0.00  0.00    +0.078 A 
BRANCH   5  11
ATOM     11  O   UNL     1      -2.736   0.060  -0.785  0.00  0.00    -0.489 OA
BRANCH  11  13
ATOM     12  C   UNL     1      -3.368   1.062   1.306  0.00  0.00    +0.051 C 
ATOM     13  C   UNL     1      -3.714   0.009   0.257  0.00  0.00    +0.167 C 
ATOM     14  C   UNL     1      -3.736  -1.384   0.894  0.00  0.00    +0.051 C 
ENDBRANCH  11  13
ENDBRANCH   5  11
ENDBRANCH   1  10
BRANCH   3  15
ATOM     15  C   UNL     1       1.350   0.411  -0.731  0.00  0.00    +0.119 C 
BRANCH  15  16
ATOM     16  C   UNL     1       1.673   0.044   0.735  0.00  0.00    +0.118 C 
BRANCH  16  17
ATOM     17  C   UNL     1       3.140   0.405   1.113  0.00  0.00    +0.009 C 
ATOM     18  C   UNL     1       3.537  -0.178   2.483  0.00  0.00    +0.032 C 
ATOM     19  C   UNL     1       4.972   0.237   2.832  0.00  0.00    +0.160 C 
ATOM     20  O   UNL     1       5.100   1.647   2.848  0.00  0.00    -0.380 OA
ATOM     21  C   UNL     1       4.884   2.168   1.549  0.00  0.00    +0.160 C 
ATOM     22  C   UNL     1       3.441   1.918   1.091  0.00  0.00    +0.032 C 
ENDBRANCH  16  17
BRANCH  16  23
ATOM     23  C   UNL     1       0.662   0.652   1.678  0.00  0.00    +0.310 C 
ATOM     24  O   UNL     1       0.203  -0.034   2.631  0.00  0.00    -0.251 OA
BRANCH  23  25
ATOM     25  O   UNL     1       0.248   1.972   1.518  0.00  0.00    -0.480 OA
ATOM     26  H   UNL     1      -0.413   2.392   2.160  0.00  0.00    +0.295 HD
ENDBRANCH  23  25
ENDBRANCH  16  23
ENDBRANCH  15  16
ENDBRANCH   3  15
TORSDOF 8
