REMARK  Name = 
REMARK  7 active torsions:
REMARK  status: ('A' for Active; 'I' for Inactive)
REMARK    1  A    between atoms: C_1  and  O_2
REMARK    2  A    between atoms: O_2  and  C_3
REMARK    3  A    between atoms: C_6  and  C_9
REMARK    4  A    between atoms: C_9  and  N_10
REMARK    5  A    between atoms: C_9  and  C_21
REMARK    6  A    between atoms: C_11  and  C_13
REMARK    7  A    between atoms: C_16  and  C_17
REMARK                            x       y       z     vdW  Elec       q    Type
REMARK                         _______ _______ _______ _____ _____    ______ ____
ROOT
ATOM      1  C   UNL     1      -0.772   0.030   1.117  0.00  0.00    +0.134 C 
ENDROOT
BRANCH   1   5
ATOM      2  C   UNL     1      -3.981   1.940  -1.092  0.00  0.00    +0.120 A 
ATOM      3  C   UNL     1      -3.057   1.125  -1.754  0.00  0.00    +0.046 A 
ATOM      4  C   UNL     1      -2.017   0.512  -1.050  0.00  0.00    +0.009 A 
ATOM      5  C   UNL     1      -1.878   0.713   0.336  0.00  0.00    -0.023 A 
ATOM      6  C   UNL     1      -2.812   1.524   1.001  0.00  0.00    +0.009 A 
ATOM      7  C   UNL     1      -3.853   2.136   0.295  0.00  0.00    +0.046 A 
BRANCH   2   9
ATOM      8  C   UNL     1      -6.013   3.381  -1.303  0.00  0.00    +0.277 C 
ATOM      9  O   UNL     1      -5.007   2.532  -1.844  0.00  0.00    -0.495 OA
ENDBRANCH   2   9
ENDBRANCH   1   5
BRANCH   1  10
ATOM     10  C   UNL     1      -1.051  -1.457   1.211  0.00  0.00    -0.023 A 
ATOM     11  C   UNL     1      -1.809  -1.954   2.286  0.00  0.00    +0.006 A 
ATOM     12  C   UNL     1      -2.106  -3.317   2.373  0.00  0.00    +0.000 A 
ATOM     13  C   UNL     1      -1.661  -4.196   1.383  0.00  0.00    +0.000 A 
ATOM     14  C   UNL     1      -0.921  -3.713   0.301  0.00  0.00    +0.000 A 
ATOM     15  C   UNL     1      -0.622  -2.350   0.209  0.00  0.00    +0.006 A 
ENDBRANCH   1  10
BRANCH   1  16
ATOM     16  N   UNL     1       0.545   0.296   0.522  0.00  0.00    -0.300 N 
ATOM     17  C   UNL     1       1.765  -0.112   1.163  0.00  0.00    +0.250 C 
ATOM     18  O   UNL     1       1.733  -0.556   2.343  0.00  0.00    -0.270 OA
ATOM     19  H   UNL     1       0.612   0.888  -0.337  0.00  0.00    +0.150 HD
BRANCH  17  20
ATOM     20  C   UNL     1       3.070   0.010   0.469  0.00  0.00    +0.101 A 
ATOM     21  C   UNL     1       4.219   0.317   1.212  0.00  0.00    +0.020 A 
ATOM     22  C   UNL     1       5.455   0.443   0.580  0.00  0.00    +0.022 A 
ATOM     23  C   UNL     1       5.543   0.264  -0.805  0.00  0.00    +0.016 A 
ATOM     24  C   UNL     1       6.873   0.361  -1.491  0.00  0.00    +0.063 C 
ATOM     25  N   UNL     1       4.427  -0.071  -1.515  0.00  0.00    -0.326 N 
ATOM     26  C   UNL     1       3.208  -0.205  -0.919  0.00  0.00    +0.261 A 
ATOM     27  O   UNL     1       2.216  -0.548  -1.618  0.00  0.00    -0.267 OA
ATOM     28  H   UNL     1       4.506  -0.240  -2.544  0.00  0.00    +0.169 HD
ENDBRANCH  17  20
ENDBRANCH   1  16
TORSDOF 5
