REMARK  Name = 
REMARK  5 active torsions:
REMARK  status: ('A' for Active; 'I' for Inactive)
REMARK    1  A    between atoms: C_2  and  C_20
REMARK    2  A    between atoms: N_3  and  C_4
REMARK    3  A    between atoms: C_4  and  C_5
REMARK    4  A    between atoms: C_10  and  S_11
REMARK    5  A    between atoms: S_11  and  N_14
REMARK                            x       y       z     vdW  Elec       q    Type
REMARK                         _______ _______ _______ _____ _____    ______ ____
ROOT
ATOM      1  C   UNL     1      -0.663   0.313   0.701  0.00  0.00    -0.004 A 
ATOM      2  C   UNL     1      -1.461   0.300   1.864  0.00  0.00    +0.007 A 
ATOM      3  C   UNL     1      -0.958   0.756   3.083  0.00  0.00    +0.000 A 
ATOM      4  C   UNL     1       0.352   1.218   3.168  0.00  0.00    +0.002 A 
ATOM      5  C   UNL     1       1.173   1.203   2.041  0.00  0.00    +0.029 A 
ATOM      6  C   UNL     1       0.694   0.726   0.809  0.00  0.00    +0.110 A 
ENDROOT
BRANCH   6   7
ATOM      7  S   UNL     1       1.817   0.670  -0.563  0.00  0.00    +0.061 S 
ATOM      8  O   UNL     1       1.502   1.817  -1.484  0.00  0.00    -0.153 OA
ATOM      9  O   UNL     1       1.656  -0.627  -1.308  0.00  0.00    -0.153 OA
BRANCH   7  10
ATOM     10  N   UNL     1       3.470   0.800  -0.009  0.00  0.00    -0.177 NA
ATOM     11  C   UNL     1       3.882  -0.418   0.735  0.00  0.00    +0.109 C 
ATOM     12  C   UNL     1       4.775  -1.356  -0.091  0.00  0.00    +0.017 C 
ATOM     13  C   UNL     1       6.048  -0.636  -0.567  0.00  0.00    +0.003 C 
ATOM     14  C   UNL     1       5.822   0.865  -0.820  0.00  0.00    +0.017 C 
ATOM     15  C   UNL     1       4.353   1.155  -1.142  0.00  0.00    +0.109 C 
ENDBRANCH   7  10
ENDBRANCH   6   7
BRANCH   1  16
ATOM     16  C   UNL     1      -1.241  -0.185  -0.612  0.00  0.00    +0.141 C 
BRANCH  16  19
ATOM     17  O   UNL     1      -3.322  -2.106  -0.193  0.00  0.00    -0.270 OA
ATOM     18  C   UNL     1      -3.671  -0.951  -0.560  0.00  0.00    +0.246 C 
ATOM     19  N   UNL     1      -2.678   0.079  -0.709  0.00  0.00    -0.307 N 
ATOM     20  H   UNL     1      -2.977   1.077  -0.789  0.00  0.00    +0.149 HD
BRANCH  18  21
ATOM     21  C   UNL     1      -5.106  -0.671  -0.804  0.00  0.00    +0.055 A 
ATOM     22  C   UNL     1      -6.096  -1.480  -0.220  0.00  0.00    +0.016 A 
ATOM     23  C   UNL     1      -7.447  -1.217  -0.452  0.00  0.00    +0.020 A 
ATOM     24  C   UNL     1      -7.804  -0.151  -1.277  0.00  0.00    +0.111 A 
ATOM     25  N   UNL     1      -6.841   0.618  -1.849  0.00  0.00    -0.263 NA
ATOM     26  C   UNL     1      -5.518   0.386  -1.637  0.00  0.00    +0.123 A 
ENDBRANCH  18  21
ENDBRANCH  16  19
ENDBRANCH   1  16
TORSDOF 5
