REMARK  Name = 
REMARK  8 active torsions:
REMARK  status: ('A' for Active; 'I' for Inactive)
REMARK    1  A    between atoms: C_1  and  O_2
REMARK    2  A    between atoms: O_2  and  C_3
REMARK    3  A    between atoms: C_9  and  C_10
REMARK    4  A    between atoms: N_12  and  C_13
REMARK    5  A    between atoms: C_13  and  C_14
REMARK    6  A    between atoms: C_14  and  C_15
REMARK    7  A    between atoms: C_15  and  C_16
REMARK    8  A    between atoms: C_16  and  O_18
REMARK                            x       y       z     vdW  Elec       q    Type
REMARK                         _______ _______ _______ _____ _____    ______ ____
ROOT
ATOM      1  C   UNL     1      -0.244  -0.006   0.770  0.00  0.00    +0.248 C 
ATOM      2  O   UNL     1       0.419  -0.118   1.836  0.00  0.00    -0.270 OA
ATOM      3  N   UNL     1       0.298  -0.500  -0.466  0.00  0.00    -0.311 N 
ATOM      4  H   UNL     1      -0.198  -0.299  -1.363  0.00  0.00    +0.149 HD
ENDROOT
BRANCH   1  11
ATOM      5  C   UNL     1      -2.660   0.182   0.060  0.00  0.00    +0.133 A 
ATOM      6  C   UNL     1      -3.888   0.874   0.113  0.00  0.00    +0.061 A 
ATOM      7  C   UNL     1      -4.027   2.012   0.911  0.00  0.00    +0.021 A 
ATOM      8 BR   UNL     1      -5.699   2.934   0.978  0.00  0.00    -0.050 Br
ATOM      9  C   UNL     1      -2.948   2.471   1.668  0.00  0.00    +0.016 A 
ATOM     10  C   UNL     1      -1.725   1.802   1.619  0.00  0.00    +0.018 A 
ATOM     11  C   UNL     1      -1.562   0.667   0.805  0.00  0.00    +0.078 A 
BRANCH   5  13
ATOM     12  C   UNL     1      -3.538  -1.583  -1.486  0.00  0.00    +0.277 C 
ATOM     13  O   UNL     1      -2.512  -0.994  -0.695  0.00  0.00    -0.494 OA
ENDBRANCH   5  13
ENDBRANCH   1  11
BRANCH   3  14
ATOM     14  C   UNL     1       1.544  -1.261  -0.528  0.00  0.00    +0.105 C 
BRANCH  14  15
ATOM     15  C   UNL     1       2.750  -0.323  -0.425  0.00  0.00    +0.030 C 
BRANCH  15  16
ATOM     16  C   UNL     1       4.063  -1.103  -0.522  0.00  0.00    +0.122 C 
BRANCH  16  17
ATOM     17  C   UNL     1       5.232  -0.176  -0.415  0.00  0.00    +0.305 C 
ATOM     18  O   UNL     1       5.724   0.343  -1.452  0.00  0.00    -0.251 OA
BRANCH  17  19
ATOM     19  O   UNL     1       5.747   0.147   0.836  0.00  0.00    -0.481 OA
ATOM     20  H   UNL     1       6.528   0.786   0.927  0.00  0.00    +0.295 HD
ENDBRANCH  17  19
ENDBRANCH  16  17
ENDBRANCH  15  16
ENDBRANCH  14  15
ENDBRANCH   3  14
TORSDOF 7
