REMARK  Name = 
REMARK  5 active torsions:
REMARK  status: ('A' for Active; 'I' for Inactive)
REMARK    1  A    between atoms: C_2  and  O_3
REMARK    2  A    between atoms: C_2  and  C_4
REMARK    3  A    between atoms: C_9  and  N_10
REMARK    4  A    between atoms: N_10  and  C_11
REMARK    5  A    between atoms: C_11  and  C_12
REMARK                            x       y       z     vdW  Elec       q    Type
REMARK                         _______ _______ _______ _____ _____    ______ ____
ROOT
ATOM      1  C   UNL     1      -2.574   0.521   0.236  0.00  0.00    +0.080 A 
ATOM      2  C   UNL     1      -3.607  -0.380  -0.089  0.00  0.00    +0.017 A 
ATOM      3  C   UNL     1      -3.338  -1.540  -0.816  0.00  0.00    +0.001 A 
ATOM      4  C   UNL     1      -2.037  -1.821  -1.226  0.00  0.00    +0.002 A 
ATOM      5  C   UNL     1      -0.997  -0.952  -0.898  0.00  0.00    +0.024 A 
ATOM      6  C   UNL     1      -1.244   0.221  -0.159  0.00  0.00    +0.041 A 
ENDROOT
BRANCH   1   8
ATOM      7  O   UNL     1      -3.933   1.820   1.693  0.00  0.00    -0.245 OA
ATOM      8  C   UNL     1      -2.925   1.778   0.937  0.00  0.00    +0.339 C 
BRANCH   8   9
ATOM      9  O   UNL     1      -2.179   2.936   0.735  0.00  0.00    -0.477 OA
ATOM     10  H   UNL     1      -2.424   3.801   1.201  0.00  0.00    +0.295 HD
ENDBRANCH   8   9
ENDBRANCH   1   8
BRANCH   6  11
ATOM     11  N   UNL     1      -0.145   1.055   0.259  0.00  0.00    -0.339 N 
ATOM     12  H   UNL     1      -0.198   1.533   1.186  0.00  0.00    +0.146 HD
BRANCH  11  13
ATOM     13  C   UNL     1       1.092   1.213  -0.506  0.00  0.00    +0.138 C 
BRANCH  13  14
ATOM     14  C   UNL     1       2.162   0.295   0.023  0.00  0.00    -0.012 A 
ATOM     15  C   UNL     1       2.754  -0.673  -0.802  0.00  0.00    +0.008 A 
ATOM     16  C   UNL     1       3.750  -1.509  -0.295  0.00  0.00    +0.020 A 
ATOM     17  C   UNL     1       4.152  -1.366   1.034  0.00  0.00    +0.111 A 
ATOM     18  N   UNL     1       3.579  -0.417   1.820  0.00  0.00    -0.263 NA
ATOM     19  C   UNL     1       2.606   0.409   1.350  0.00  0.00    +0.115 A 
ENDBRANCH  13  14
ENDBRANCH  11  13
ENDBRANCH   6  11
TORSDOF 5
