REMARK  Name = 
REMARK  10 active torsions:
REMARK  status: ('A' for Active; 'I' for Inactive)
REMARK    1  A    between atoms: C_1  and  O_2
REMARK    2  A    between atoms: O_2  and  C_3
REMARK    3  A    between atoms: C_8  and  O_9
REMARK    4  A    between atoms: O_9  and  C_10
REMARK    5  A    between atoms: C_10  and  C_11
REMARK    6  A    between atoms: N_13  and  C_14
REMARK    7  A    between atoms: C_14  and  C_15
REMARK    8  A    between atoms: C_14  and  C_19
REMARK    9  A    between atoms: C_15  and  C_16
REMARK   10  A    between atoms: C_16  and  O_18
REMARK                            x       y       z     vdW  Elec       q    Type
REMARK                         _______ _______ _______ _____ _____    ______ ____
ROOT
ATOM      1  C   UNL     1      -0.164  -1.712  -1.420  0.00  0.00    +0.251 C 
ATOM      2  O   UNL     1      -0.528  -1.536  -2.614  0.00  0.00    -0.272 OA
ATOM      3  N   UNL     1       1.204  -1.508  -1.041  0.00  0.00    -0.305 N 
ATOM      4  H   UNL     1       1.490  -1.770  -0.070  0.00  0.00    +0.149 HD
ENDROOT
BRANCH   1   5
ATOM      5  C   UNL     1      -1.179  -2.049  -0.379  0.00  0.00    +0.324 C 
BRANCH   5   6
ATOM      6  O   UNL     1      -1.467  -0.872   0.369  0.00  0.00    -0.479 OA
BRANCH   6  12
ATOM      7  C   UNL     1      -2.503   0.424   2.115  0.00  0.00    +0.162 A 
ATOM      8  C   UNL     1      -3.364   0.515   3.227  0.00  0.00    +0.049 A 
ATOM      9  C   UNL     1      -4.051  -0.613   3.680  0.00  0.00    +0.004 A 
ATOM     10  C   UNL     1      -3.889  -1.839   3.033  0.00  0.00    +0.004 A 
ATOM     11  C   UNL     1      -3.037  -1.942   1.931  0.00  0.00    +0.049 A 
ATOM     12  C   UNL     1      -2.337  -0.811   1.467  0.00  0.00    +0.163 A 
BRANCH   7  14
ATOM     13  C   UNL     1      -1.881   2.848   2.167  0.00  0.00    +0.277 C 
ATOM     14  O   UNL     1      -1.798   1.534   1.624  0.00  0.00    -0.491 OA
ENDBRANCH   7  14
ENDBRANCH   6  12
ENDBRANCH   5   6
ENDBRANCH   1   5
BRANCH   3  15
ATOM     15  C   UNL     1       2.115  -0.695  -1.854  0.00  0.00    +0.114 C 
BRANCH  15  16
ATOM     16  C   UNL     1       1.774   0.772  -1.690  0.00  0.00    -0.027 A 
ATOM     17  C   UNL     1       1.612   1.334  -0.409  0.00  0.00    +0.005 A 
ATOM     18  C   UNL     1       1.302   2.689  -0.266  0.00  0.00    +0.000 A 
ATOM     19  C   UNL     1       1.152   3.497  -1.395  0.00  0.00    +0.000 A 
ATOM     20  C   UNL     1       1.320   2.952  -2.671  0.00  0.00    +0.000 A 
ATOM     21  C   UNL     1       1.636   1.597  -2.820  0.00  0.00    +0.005 A 
ENDBRANCH  15  16
BRANCH  15  22
ATOM     22  C   UNL     1       3.580  -0.948  -1.457  0.00  0.00    +0.147 C 
BRANCH  22  23
ATOM     23  C   UNL     1       3.979  -2.364  -1.736  0.00  0.00    +0.307 C 
ATOM     24  O   UNL     1       4.358  -2.697  -2.891  0.00  0.00    -0.251 OA
BRANCH  23  25
ATOM     25  O   UNL     1       3.893  -3.321  -0.730  0.00  0.00    -0.481 OA
ATOM     26  H   UNL     1       4.144  -4.287  -0.908  0.00  0.00    +0.295 HD
ENDBRANCH  23  25
ENDBRANCH  22  23
ENDBRANCH  15  22
ENDBRANCH   3  15
TORSDOF 9
