REMARK  Name = 
REMARK  7 active torsions:
REMARK  status: ('A' for Active; 'I' for Inactive)
REMARK    1  A    between atoms: C_2  and  C_4
REMARK    2  A    between atoms: C_8  and  C_10
REMARK    3  A    between atoms: N_12  and  CA_13
REMARK    4  A    between atoms: CA_13  and  CB_14
REMARK    5  A    between atoms: CA_13  and  C_21
REMARK    6  A    between atoms: CB_14  and  CG_15
REMARK    7  A    between atoms: C_21  and  OXT_23
REMARK                            x       y       z     vdW  Elec       q    Type
REMARK                         _______ _______ _______ _____ _____    ______ ____
ROOT
ATOM      1  C   UNK A   0       1.109   0.047  -0.310  0.00  0.00    +0.245 C 
ATOM      2  O   UNK A   0       0.768   1.178  -0.754  0.00  0.00    -0.270 OA
ATOM      3  N   PHE A   1       0.152  -1.027  -0.293  0.00  0.00    -0.298 N 
ATOM      4  H   PHE A   1       0.493  -2.002  -0.132  0.00  0.00    +0.150 HD
ENDROOT
BRANCH   1   9
ATOM      5  C   UNK A   0       4.859   0.492   0.136  0.00  0.00    +0.037 A 
ATOM      6  C   UNK A   0       5.136  -0.526   1.064  0.00  0.00    +0.013 A 
ATOM      7  C   UNK A   0       4.110  -1.335   1.553  0.00  0.00    +0.001 A 
ATOM      8  C   UNK A   0       2.798  -1.151   1.115  0.00  0.00    +0.013 A 
ATOM      9  C   UNK A   0       2.498  -0.157   0.168  0.00  0.00    +0.037 A 
ATOM     10  C   UNK A   0       3.535   0.665  -0.311  0.00  0.00    +0.026 A 
BRANCH   5  12
ATOM     11  N   UNK A   0       5.709   2.651  -0.906  0.00  0.00    -0.325 N 
ATOM     12  C   UNK A   0       5.960   1.347  -0.374  0.00  0.00    +0.242 C 
ATOM     13  O   UNK A   0       7.148   0.927  -0.326  0.00  0.00    -0.270 OA
ATOM     14  H   UNK A   0       4.776   3.109  -0.822  0.00  0.00    +0.145 HD
ATOM     15  H   UNK A   0       6.495   3.206  -1.312  0.00  0.00    +0.145 HD
ENDBRANCH   5  12
ENDBRANCH   1   9
BRANCH   3  16
ATOM     16  CA  PHE A   1      -1.275  -0.801  -0.549  0.00  0.00    +0.186 C 
BRANCH  16  17
ATOM     17  C   PHE A   1      -1.951  -2.099  -0.905  0.00  0.00    +0.326 C 
ATOM     18  O   PHE A   1      -1.937  -3.068  -0.098  0.00  0.00    -0.249 OA
BRANCH  17  19
ATOM     19  OXT PHE A   1      -2.610  -2.223  -2.124  0.00  0.00    -0.479 OA
ATOM     20  HXT PHE A   1      -3.078  -3.086  -2.376  0.00  0.00    +0.295 HD
ENDBRANCH  17  19
ENDBRANCH  16  17
BRANCH  16  21
ATOM     21  CB  PHE A   1      -1.934  -0.151   0.682  0.00  0.00    +0.069 C 
BRANCH  21  22
ATOM     22  CG  PHE A   1      -3.361   0.251   0.403  0.00  0.00    -0.045 A 
ATOM     23  CD1 PHE A   1      -4.424  -0.583   0.787  0.00  0.00    +0.004 A 
ATOM     24  CE1 PHE A   1      -5.743  -0.219   0.498  0.00  0.00    +0.000 A 
ATOM     25  CZ  PHE A   1      -6.009   0.974  -0.179  0.00  0.00    +0.000 A 
ATOM     26  CE2 PHE A   1      -4.956   1.805  -0.571  0.00  0.00    +0.000 A 
ATOM     27  CD2 PHE A   1      -3.636   1.445  -0.285  0.00  0.00    +0.004 A 
ENDBRANCH  21  22
ENDBRANCH  16  21
ENDBRANCH   3  16
TORSDOF 7
