REMARK  Name = 
REMARK  7 active torsions:
REMARK  status: ('A' for Active; 'I' for Inactive)
REMARK    1  A    between atoms: C_1  and  C_2
REMARK    2  A    between atoms: C_2  and  O_3
REMARK    3  A    between atoms: O_3  and  C_4
REMARK    4  A    between atoms: C_7  and  N_10
REMARK    5  A    between atoms: C_11  and  C_13
REMARK    6  A    between atoms: C_16  and  N_19
REMARK    7  A    between atoms: C_20  and  C_22
REMARK                            x       y       z     vdW  Elec       q    Type
REMARK                         _______ _______ _______ _____ _____    ______ ____
ROOT
ATOM      1  C   UNL     1       0.112   0.978  -0.137  0.00  0.00    +0.037 A 
ATOM      2  C   UNL     1       0.802  -0.084   0.473  0.00  0.00    +0.015 A 
ATOM      3  C   UNL     1       2.200  -0.126   0.456  0.00  0.00    +0.024 A 
ATOM      4  C   UNL     1       2.935   0.897  -0.166  0.00  0.00    +0.034 A 
ATOM      5  C   UNL     1       2.247   1.940  -0.801  0.00  0.00    +0.024 A 
ATOM      6  C   UNL     1       0.851   1.984  -0.784  0.00  0.00    +0.015 A 
ENDROOT
BRANCH   1   8
ATOM      7  N   UNL     1      -2.128   0.280   0.838  0.00  0.00    -0.281 N 
ATOM      8  C   UNL     1      -1.371   1.028  -0.129  0.00  0.00    +0.248 C 
ATOM      9  O   UNL     1      -1.971   1.772  -0.953  0.00  0.00    -0.270 OA
ATOM     10  H   UNL     1      -1.677   0.065   1.755  0.00  0.00    +0.155 HD
BRANCH   7  14
ATOM     11  C   UNL     1      -6.238  -0.761   0.422  0.00  0.00    +0.121 A 
ATOM     12  C   UNL     1      -5.674  -0.550   1.685  0.00  0.00    +0.047 A 
ATOM     13  C   UNL     1      -4.325  -0.206   1.814  0.00  0.00    +0.027 A 
ATOM     14  C   UNL     1      -3.518  -0.054   0.678  0.00  0.00    +0.034 A 
ATOM     15  C   UNL     1      -4.075  -0.289  -0.591  0.00  0.00    +0.027 A 
ATOM     16  C   UNL     1      -5.423  -0.635  -0.721  0.00  0.00    +0.047 A 
BRANCH  11  17
ATOM     17  O   UNL     1      -7.598  -1.105   0.353  0.00  0.00    -0.492 OA
BRANCH  17  19
ATOM     18  C   UNL     1      -8.697   0.106  -1.446  0.00  0.00    +0.048 C 
ATOM     19  C   UNL     1      -8.358  -1.255  -0.846  0.00  0.00    +0.225 C 
ENDBRANCH  17  19
ENDBRANCH  11  17
ENDBRANCH   7  14
ENDBRANCH   1   8
BRANCH   4  20
ATOM     20  N   UNL     1       4.372   0.864  -0.216  0.00  0.00    -0.282 N 
ATOM     21  C   UNL     1       5.194   0.281   0.810  0.00  0.00    +0.248 C 
ATOM     22  O   UNL     1       4.732   0.144   1.976  0.00  0.00    -0.270 OA
ATOM     23  H   UNL     1       4.846   1.392  -0.984  0.00  0.00    +0.155 HD
BRANCH  21  24
ATOM     24  C   UNL     1       6.596  -0.114   0.529  0.00  0.00    +0.037 A 
ATOM     25  C   UNL     1       7.034  -0.337  -0.790  0.00  0.00    +0.013 A 
ATOM     26  C   UNL     1       8.356  -0.717  -1.042  0.00  0.00    +0.001 A 
ATOM     27  C   UNL     1       9.253  -0.882   0.015  0.00  0.00    +0.000 A 
ATOM     28  C   UNL     1       8.828  -0.673   1.329  0.00  0.00    +0.001 A 
ATOM     29  C   UNL     1       7.506  -0.295   1.587  0.00  0.00    +0.013 A 
ENDBRANCH  21  24
ENDBRANCH   4  20
TORSDOF 6
