REMARK  Name = 
REMARK  9 active torsions:
REMARK  status: ('A' for Active; 'I' for Inactive)
REMARK    1  A    between atoms: C_1  and  C_2
REMARK    2  A    between atoms: C_2  and  C_3
REMARK    3  A    between atoms: C_3  and  O_4
REMARK    4  A    between atoms: O_4  and  C_5
REMARK    5  A    between atoms: C_10  and  O_11
REMARK    6  A    between atoms: O_11  and  C_12
REMARK    7  A    between atoms: C_12  and  C_13
REMARK    8  A    between atoms: N_15  and  C_16
REMARK    9  A    between atoms: C_19  and  C_22
REMARK                            x       y       z     vdW  Elec       q    Type
REMARK                         _______ _______ _______ _____ _____    ______ ____
ROOT
ATOM      1  C   UNL     1      -0.033  -1.757   0.887  0.00  0.00    +0.255 C 
ATOM      2  O   UNL     1       0.020  -2.708   0.061  0.00  0.00    -0.272 OA
ATOM      3  N   UNL     1       1.171  -1.163   1.399  0.00  0.00    -0.283 N 
ATOM      4  H   UNL     1       1.096  -0.215   1.833  0.00  0.00    +0.155 HD
ENDROOT
BRANCH   3   5
ATOM      5  C   UNL     1       2.481  -1.733   1.243  0.00  0.00    +0.034 A 
ATOM      6  C   UNL     1       2.684  -3.124   1.261  0.00  0.00    +0.024 A 
ATOM      7  C   UNL     1       3.972  -3.654   1.132  0.00  0.00    +0.015 A 
ATOM      8  C   UNL     1       5.085  -2.804   1.000  0.00  0.00    +0.037 A 
ATOM      9  C   UNL     1       4.878  -1.413   0.993  0.00  0.00    +0.015 A 
ATOM     10  C   UNL     1       3.590  -0.885   1.125  0.00  0.00    +0.024 A 
BRANCH   8  11
ATOM     11  C   UNL     1       6.457  -3.348   0.855  0.00  0.00    +0.242 C 
ATOM     12  N   UNL     1       6.794  -4.660   1.314  0.00  0.00    -0.325 N 
ATOM     13  O   UNL     1       7.356  -2.639   0.328  0.00  0.00    -0.270 OA
ATOM     14  H   UNL     1       7.752  -5.040   1.145  0.00  0.00    +0.145 HD
ATOM     15  H   UNL     1       6.139  -5.225   1.897  0.00  0.00    +0.145 HD
ENDBRANCH   8  11
ENDBRANCH   3   5
BRANCH   1  16
ATOM     16  C   UNL     1      -1.361  -1.182   1.259  0.00  0.00    +0.325 C 
BRANCH  16  17
ATOM     17  O   UNL     1      -1.602  -0.019   0.472  0.00  0.00    -0.479 OA
BRANCH  17  23
ATOM     18  C   UNL     1      -2.850   1.905  -0.274  0.00  0.00    +0.162 A 
ATOM     19  C   UNL     1      -3.991   2.729  -0.198  0.00  0.00    +0.049 A 
ATOM     20  C   UNL     1      -5.019   2.429   0.698  0.00  0.00    +0.004 A 
ATOM     21  C   UNL     1      -4.922   1.312   1.528  0.00  0.00    +0.004 A 
ATOM     22  C   UNL     1      -3.795   0.490   1.466  0.00  0.00    +0.049 A 
ATOM     23  C   UNL     1      -2.751   0.782   0.565  0.00  0.00    +0.163 A 
BRANCH  18  24
ATOM     24  O   UNL     1      -1.788   2.167  -1.157  0.00  0.00    -0.488 OA
BRANCH  24  25
ATOM     25  C   UNL     1      -1.763   3.193  -2.150  0.00  0.00    +0.229 C 
BRANCH  25  27
ATOM     26  C   UNL     1      -2.598   3.881  -4.428  0.00  0.00    +0.007 C 
ATOM     27  C   UNL     1      -2.631   2.802  -3.350  0.00  0.00    +0.038 C 
ENDBRANCH  25  27
ENDBRANCH  24  25
ENDBRANCH  18  24
ENDBRANCH  17  23
ENDBRANCH  16  17
ENDBRANCH   1  16
TORSDOF 8
