REMARK  Name = 
REMARK  10 active torsions:
REMARK  status: ('A' for Active; 'I' for Inactive)
REMARK    1  A    between atoms: C_1  and  N_2
REMARK    2  A    between atoms: N_2  and  C_3
REMARK    3  A    between atoms: C_3  and  C_4
REMARK    4  A    between atoms: C_4  and  C_5
REMARK    5  A    between atoms: C_5  and  C_6
REMARK    6  A    between atoms: C_12  and  C_14
REMARK    7  A    between atoms: C_19  and  C_20
REMARK    8  A    between atoms: C_20  and  C_21
REMARK    9  A    between atoms: C_21  and  C_22
REMARK   10  A    between atoms: C_22  and  O_24
REMARK                            x       y       z     vdW  Elec       q    Type
REMARK                         _______ _______ _______ _____ _____    ______ ____
ROOT
ATOM      1  C   UNL     1      -0.018  -0.334  -2.942  0.00  0.00    +0.132 C 
ATOM      2  N   UNL     1      -0.297  -0.336  -1.503  0.00  0.00    -0.301 N 
ATOM      3  C   UNL     1      -0.849  -1.528  -0.907  0.00  0.00    +0.247 C 
ATOM      4  O   UNL     1      -0.678  -2.647  -1.461  0.00  0.00    -0.270 OA
ENDROOT
BRANCH   3   5
ATOM      5  C   UNL     1      -1.646  -1.471   0.332  0.00  0.00    +0.040 A 
ATOM      6  C   UNL     1      -1.017  -1.764   1.551  0.00  0.00    +0.013 A 
ATOM      7  C   UNL     1      -1.731  -1.700   2.749  0.00  0.00    +0.001 A 
ATOM      8  C   UNL     1      -3.083  -1.358   2.739  0.00  0.00    +0.000 A 
ATOM      9  C   UNL     1      -3.730  -1.095   1.530  0.00  0.00    +0.004 A 
ATOM     10  C   UNL     1      -3.029  -1.159   0.312  0.00  0.00    -0.035 A 
BRANCH  10  11
ATOM     11  C   UNL     1      -3.786  -0.916  -0.979  0.00  0.00    +0.047 C 
BRANCH  11  12
ATOM     12  C   UNL     1      -3.768   0.555  -1.416  0.00  0.00    +0.125 C 
BRANCH  12  13
ATOM     13  C   UNL     1      -4.431   1.447  -0.413  0.00  0.00    +0.305 C 
ATOM     14  O   UNL     1      -5.686   1.549  -0.391  0.00  0.00    -0.251 OA
BRANCH  13  15
ATOM     15  O   UNL     1      -3.660   2.131   0.522  0.00  0.00    -0.481 OA
ATOM     16  H   UNL     1      -4.094   2.723   1.220  0.00  0.00    +0.295 HD
ENDBRANCH  13  15
ENDBRANCH  12  13
ENDBRANCH  11  12
ENDBRANCH  10  11
ENDBRANCH   3   5
BRANCH   2  17
ATOM     17  C   UNL     1      -0.044   0.875  -0.703  0.00  0.00    +0.108 C 
BRANCH  17  18
ATOM     18  C   UNL     1       1.254   0.752   0.104  0.00  0.00    +0.024 C 
BRANCH  18  19
ATOM     19  C   UNL     1       2.492   0.674  -0.798  0.00  0.00    +0.036 C 
BRANCH  19  20
ATOM     20  C   UNL     1       3.746   0.626   0.033  0.00  0.00    -0.047 A 
ATOM     21  C   UNL     1       4.403   1.813   0.397  0.00  0.00    +0.003 A 
ATOM     22  C   UNL     1       5.548   1.767   1.198  0.00  0.00    +0.000 A 
ATOM     23  C   UNL     1       6.039   0.538   1.649  0.00  0.00    +0.000 A 
ATOM     24  C   UNL     1       5.382  -0.646   1.303  0.00  0.00    +0.000 A 
ATOM     25  C   UNL     1       4.237  -0.605   0.502  0.00  0.00    +0.003 A 
ENDBRANCH  19  20
ENDBRANCH  18  19
ENDBRANCH  17  18
ENDBRANCH   2  17
TORSDOF 9
