REMARK  Name = 
REMARK  9 active torsions:
REMARK  status: ('A' for Active; 'I' for Inactive)
REMARK    1  A    between atoms: C_1  and  C_2
REMARK    2  A    between atoms: C_2  and  C_3
REMARK    3  A    between atoms: C_5  and  C_6
REMARK    4  A    between atoms: C_7  and  C_9
REMARK    5  A    between atoms: N_11  and  C_12
REMARK    6  A    between atoms: C_12  and  C_13
REMARK    7  A    between atoms: C_12  and  C_17
REMARK    8  A    between atoms: C_13  and  C_14
REMARK    9  A    between atoms: C_14  and  O_16
REMARK                            x       y       z     vdW  Elec       q    Type
REMARK                         _______ _______ _______ _____ _____    ______ ____
ROOT
ATOM      1  C   UNL     1       0.359  -0.809   0.452  0.00  0.00    +0.280 C 
ATOM      2  O   UNL     1       0.244  -1.154   1.659  0.00  0.00    -0.267 OA
ATOM      3  N   UNL     1      -0.746  -0.980  -0.448  0.00  0.00    -0.301 N 
ATOM      4  H   UNL     1      -0.566  -0.954  -1.476  0.00  0.00    +0.150 HD
ENDROOT
BRANCH   1   9
ATOM      5  C   UNL     1       3.766   0.042  -0.050  0.00  0.00    +0.106 A 
ATOM      6  C   UNL     1       3.263   0.793  -1.094  0.00  0.00    +0.048 A 
ATOM      7  C   UNL     1       1.897   0.596  -1.064  0.00  0.00    +0.000 A 
ATOM      8  C   UNL     1       0.911   1.251  -1.980  0.00  0.00    +0.048 C 
ATOM      9  C   UNL     1       1.654  -0.278  -0.011  0.00  0.00    +0.192 A 
ATOM     10  O   UNL     1       2.791  -0.574   0.579  0.00  0.00    -0.455 OA
BRANCH   5  12
ATOM     11  C   UNL     1       5.538   1.053   1.363  0.00  0.00    +0.012 C 
ATOM     12  C   UNL     1       5.203  -0.039   0.355  0.00  0.00    +0.071 C 
ENDBRANCH   5  12
ENDBRANCH   1   9
BRANCH   3  13
ATOM     13  C   UNL     1      -2.099  -1.276   0.035  0.00  0.00    +0.121 C 
BRANCH  13  14
ATOM     14  C   UNL     1      -2.656  -0.072   0.746  0.00  0.00    +0.011 A 
ATOM     15  C   UNL     1      -2.781   1.209   0.220  0.00  0.00    +0.013 A 
ATOM     16  C   UNL     1      -3.348   2.120   1.118  0.00  0.00    +0.008 A 
ATOM     17  C   UNL     1      -3.672   1.563   2.349  0.00  0.00    +0.045 A 
ATOM     18  S   UNL     1      -3.254  -0.066   2.317  0.00  0.00    -0.100 S 
ENDBRANCH  13  14
BRANCH  13  19
ATOM     19  C   UNL     1      -3.008  -1.696  -1.136  0.00  0.00    +0.148 C 
BRANCH  19  20
ATOM     20  C   UNL     1      -4.356  -2.139  -0.655  0.00  0.00    +0.307 C 
ATOM     21  O   UNL     1      -5.333  -1.343  -0.690  0.00  0.00    -0.251 OA
BRANCH  20  22
ATOM     22  O   UNL     1      -4.520  -3.418  -0.133  0.00  0.00    -0.481 OA
ATOM     23  H   UNL     1      -5.421  -3.727   0.211  0.00  0.00    +0.295 HD
ENDBRANCH  20  22
ENDBRANCH  19  20
ENDBRANCH  13  19
ENDBRANCH   3  13
TORSDOF 7
