REMARK  Name = 
REMARK  6 active torsions:
REMARK  status: ('A' for Active; 'I' for Inactive)
REMARK    1  A    between atoms: C_1  and  O_2
REMARK    2  A    between atoms: O_2  and  C_3
REMARK    3  A    between atoms: C_5  and  C_19
REMARK    4  A    between atoms: C_8  and  C_9
REMARK    5  A    between atoms: N_11  and  C_12
REMARK    6  A    between atoms: C_19  and  O_20
REMARK                            x       y       z     vdW  Elec       q    Type
REMARK                         _______ _______ _______ _____ _____    ______ ____
ROOT
ATOM      1  C   UNL     1       1.910  -0.062  -0.183  0.00  0.00    +0.133 A 
ATOM      2  C   UNL     1       3.254   0.358  -0.250  0.00  0.00    +0.052 A 
ATOM      3  C   UNL     1       3.955   0.323  -1.464  0.00  0.00    -0.019 A 
ATOM      4  C   UNL     1       3.304  -0.113  -2.624  0.00  0.00    +0.007 A 
ATOM      5  C   UNL     1       1.972  -0.524  -2.571  0.00  0.00    +0.017 A 
ATOM      6  C   UNL     1       1.260  -0.489  -1.362  0.00  0.00    +0.078 A 
ENDROOT
BRANCH   6   7
ATOM      7  C   UNL     1      -0.156  -0.920  -1.347  0.00  0.00    +0.248 C 
ATOM      8  O   UNL     1      -0.517  -1.887  -2.071  0.00  0.00    -0.270 OA
ATOM      9  N   UNL     1      -1.123  -0.233  -0.539  0.00  0.00    -0.308 N 
ATOM     10  H   UNL     1      -0.874   0.707  -0.154  0.00  0.00    +0.149 HD
BRANCH   9  11
ATOM     11  C   UNL     1      -2.445  -0.803  -0.257  0.00  0.00    +0.079 C 
ATOM     12  C   UNL     1      -2.323  -1.915   0.787  0.00  0.00    +0.023 C 
ATOM     13  C   UNL     1      -2.487  -1.244   2.155  0.00  0.00    +0.002 C 
ATOM     14  C   UNL     1      -3.399  -0.036   1.949  0.00  0.00    +0.009 C 
ATOM     15  C   UNL     1      -3.336   0.210   0.452  0.00  0.00    -0.011 C 
ATOM     16  C   UNL     1      -3.518   1.615  -0.104  0.00  0.00    +0.009 C 
ATOM     17  C   UNL     1      -4.643   0.594  -0.235  0.00  0.00    +0.009 C 
ENDBRANCH   9  11
ENDBRANCH   6   7
BRANCH   1  19
ATOM     18  C   UNL     1       1.743   0.318   2.290  0.00  0.00    +0.277 C 
ATOM     19  O   UNL     1       1.209  -0.090   1.035  0.00  0.00    -0.494 OA
ENDBRANCH   1  19
BRANCH   3  20
ATOM     20  C   UNL     1       5.379   0.804  -1.532  0.00  0.00    +0.191 C 
BRANCH  20  21
ATOM     21  O   UNL     1       5.412   2.160  -1.881  0.00  0.00    -0.390 OA
ATOM     22  H   UNL     1       5.156   2.669  -1.068  0.00  0.00    +0.210 HD
ENDBRANCH  20  21
ENDBRANCH   3  20
TORSDOF 5
