REMARK  Name = 
REMARK  3 active torsions:
REMARK  status: ('A' for Active; 'I' for Inactive)
REMARK    1  A    between atoms: C_1  and  C_2
REMARK    2  A    between atoms: C_6  and  N_8
REMARK    3  A    between atoms: C_11  and  C_14
REMARK                            x       y       z     vdW  Elec       q    Type
REMARK                         _______ _______ _______ _____ _____    ______ ____
ROOT
ATOM      1  N   UNL     1      -1.174  -0.152   0.747  0.00  0.00    -0.294 N 
ATOM      2  C   UNL     1       0.012   0.018  -0.039  0.00  0.00    +0.163 A 
ATOM      3  N   UNL     1       1.248  -0.215   0.451  0.00  0.00    -0.225 NA
ATOM      4  C   UNL     1       2.227   0.086  -0.448  0.00  0.00    +0.080 A 
ATOM      5  C   UNL     1       1.756   0.590  -1.666  0.00  0.00    +0.076 A 
ATOM      6  S   UNL     1       0.077   0.651  -1.597  0.00  0.00    -0.060 S 
ATOM      7  H   UNL     1      -1.060  -0.209   1.784  0.00  0.00    +0.154 HD
ENDROOT
BRANCH   4   8
ATOM      8  C   UNL     1       3.665  -0.099  -0.116  0.00  0.00    +0.004 A 
ATOM      9  C   UNL     1       4.663  -0.057  -1.111  0.00  0.00    +0.013 A 
ATOM     10  C   UNL     1       6.008  -0.236  -0.774  0.00  0.00    +0.042 A 
ATOM     11  C   UNL     1       6.376  -0.461   0.554  0.00  0.00    +0.158 A 
ATOM     12  F   UNL     1       7.683  -0.635   0.874  0.00  0.00    -0.202 F 
ATOM     13  C   UNL     1       5.397  -0.511   1.550  0.00  0.00    +0.159 A 
ATOM     14  F   UNL     1       5.752  -0.732   2.840  0.00  0.00    -0.202 F 
ATOM     15  C   UNL     1       4.051  -0.333   1.218  0.00  0.00    +0.051 A 
ENDBRANCH   4   8
BRANCH   1  21
ATOM     16  C   UNL     1      -5.965   1.062   1.261  0.00  0.00    +0.044 C 
ATOM     17  C   UNL     1      -4.858   0.452   0.454  0.00  0.00    -0.049 A 
ATOM     18  C   UNL     1      -5.139  -0.179  -0.767  0.00  0.00    +0.003 A 
ATOM     19  C   UNL     1      -4.114  -0.790  -1.494  0.00  0.00    +0.002 A 
ATOM     20  C   UNL     1      -2.804  -0.778  -1.008  0.00  0.00    +0.023 A 
ATOM     21  C   UNL     1      -2.506  -0.143   0.210  0.00  0.00    +0.033 A 
ATOM     22  C   UNL     1      -3.544   0.445   0.948  0.00  0.00    +0.026 A 
ENDBRANCH   1  21
TORSDOF 2
