REMARK  Name = 
REMARK  7 active torsions:
REMARK  status: ('A' for Active; 'I' for Inactive)
REMARK    1  A    between atoms: C_1  and  O_2
REMARK    2  A    between atoms: O_2  and  C_3
REMARK    3  A    between atoms: C_6  and  O_7
REMARK    4  A    between atoms: O_7  and  C_8
REMARK    5  A    between atoms: C_9  and  C_11
REMARK    6  A    between atoms: C_14  and  C_16
REMARK    7  A    between atoms: C_20  and  C_22
REMARK                            x       y       z     vdW  Elec       q    Type
REMARK                         _______ _______ _______ _____ _____    ______ ____
ROOT
ATOM      1  C   UNL     1      -0.545  -1.152  -0.682  0.00  0.00    +0.082 A 
ATOM      2  C   UNL     1      -0.426  -2.394  -1.310  0.00  0.00    +0.075 A 
ATOM      3  S   UNL     1       1.183  -2.865  -1.218  0.00  0.00    -0.075 S 
ATOM      4  C   UNL     1       1.673  -1.479  -0.394  0.00  0.00    +0.109 A 
ATOM      5  N   UNL     1       0.623  -0.652  -0.189  0.00  0.00    -0.239 NA
ENDROOT
BRANCH   1  10
ATOM      6  C   UNL     1      -2.922   1.788  -0.627  0.00  0.00    +0.121 A 
ATOM      7  C   UNL     1      -4.159   1.150  -0.443  0.00  0.00    +0.049 A 
ATOM      8  C   UNL     1      -4.224  -0.238  -0.319  0.00  0.00    +0.050 A 
ATOM      9  C   UNL     1      -3.055  -1.021  -0.377  0.00  0.00    +0.129 A 
ATOM     10  C   UNL     1      -1.810  -0.386  -0.590  0.00  0.00    +0.046 A 
ATOM     11  C   UNL     1      -1.759   1.016  -0.694  0.00  0.00    +0.059 A 
BRANCH   6  13
ATOM     12  C   UNL     1      -3.901   4.088  -0.700  0.00  0.00    +0.277 C 
ATOM     13  O   UNL     1      -2.805   3.181  -0.749  0.00  0.00    -0.495 OA
ENDBRANCH   6  13
BRANCH   9  14
ATOM     14  O   UNL     1      -3.097  -2.414  -0.203  0.00  0.00    -0.494 OA
ATOM     15  C   UNL     1      -4.284  -3.169   0.019  0.00  0.00    +0.277 C 
ENDBRANCH   9  14
ENDBRANCH   1  10
BRANCH   4  16
ATOM     16  C   UNL     1       3.054  -1.172   0.046  0.00  0.00    +0.008 A 
ATOM     17  C   UNL     1       4.106  -2.071  -0.198  0.00  0.00    +0.010 A 
ATOM     18  C   UNL     1       5.400  -1.777   0.231  0.00  0.00    +0.001 A 
ATOM     19  C   UNL     1       5.665  -0.583   0.902  0.00  0.00    +0.013 A 
ATOM     20  C   UNL     1       4.634   0.340   1.148  0.00  0.00    +0.037 A 
ATOM     21  C   UNL     1       3.328   0.031   0.724  0.00  0.00    +0.023 A 
BRANCH  20  22
ATOM     22  C   UNL     1       4.930   1.605   1.865  0.00  0.00    +0.242 C 
ATOM     23  N   UNL     1       4.095   2.758   1.723  0.00  0.00    -0.325 N 
ATOM     24  O   UNL     1       5.947   1.678   2.606  0.00  0.00    -0.270 OA
ATOM     25  H   UNL     1       4.293   3.615   2.286  0.00  0.00    +0.145 HD
ATOM     26  H   UNL     1       3.341   2.806   1.004  0.00  0.00    +0.145 HD
ENDBRANCH  20  22
ENDBRANCH   4  16
TORSDOF 5
