REMARK  Name = 
REMARK  5 active torsions:
REMARK  status: ('A' for Active; 'I' for Inactive)
REMARK    1  A    between atoms: C_2  and  O_3
REMARK    2  A    between atoms: C_2  and  C_4
REMARK    3  A    between atoms: C_4  and  O_5
REMARK    4  A    between atoms: C_4  and  C_14
REMARK    5  A    between atoms: O_5  and  C_6
REMARK                            x       y       z     vdW  Elec       q    Type
REMARK                         _______ _______ _______ _____ _____    ______ ____
ROOT
ATOM      1  C   UNL     1      -0.473  -1.446   0.553  0.00  0.00    +0.311 C 
ENDROOT
BRANCH   1   2
ATOM      2  C   UNL     1      -1.370  -0.358   0.005  0.00  0.00    +0.004 A 
ATOM      3  C   UNL     1      -1.954  -0.500  -1.265  0.00  0.00    +0.008 A 
ATOM      4  C   UNL     1      -2.798   0.495  -1.769  0.00  0.00    +0.000 A 
ATOM      5  C   UNL     1      -3.073   1.633  -1.006  0.00  0.00    +0.000 A 
ATOM      6  C   UNL     1      -2.508   1.776   0.264  0.00  0.00    +0.000 A 
ATOM      7  C   UNL     1      -1.664   0.784   0.772  0.00  0.00    +0.008 A 
ENDBRANCH   1   2
BRANCH   1   9
ATOM      8  O   UNL     1      -1.405  -1.958   2.700  0.00  0.00    -0.246 OA
ATOM      9  C   UNL     1      -1.256  -2.305   1.497  0.00  0.00    +0.351 C 
BRANCH   9  10
ATOM     10  O   UNL     1      -1.861  -3.469   1.032  0.00  0.00    -0.478 OA
ATOM     11  H   UNL     1      -2.408  -4.053   1.652  0.00  0.00    +0.295 HD
ENDBRANCH   9  10
ENDBRANCH   1   9
BRANCH   1  12
ATOM     12  O   UNL     1       0.651  -0.887   1.238  0.00  0.00    -0.473 OA
BRANCH  12  13
ATOM     13  C   UNL     1       1.704  -0.183   0.631  0.00  0.00    +0.125 A 
ATOM     14  C   UNL     1       1.800  -0.009  -0.765  0.00  0.00    +0.048 A 
ATOM     15  C   UNL     1       2.869   0.707  -1.313  0.00  0.00    +0.045 A 
ATOM     16  C   UNL     1       3.850   1.251  -0.481  0.00  0.00    +0.159 A 
ATOM     17  F   UNL     1       4.884   1.944  -1.018  0.00  0.00    -0.202 F 
ATOM     18  C   UNL     1       3.764   1.080   0.904  0.00  0.00    +0.162 A 
ATOM     19  F   UNL     1       4.715   1.607   1.715  0.00  0.00    -0.202 F 
ATOM     20  C   UNL     1       2.695   0.365   1.456  0.00  0.00    +0.087 A 
ENDBRANCH  12  13
ENDBRANCH   1  12
TORSDOF 5
