REMARK  Name = 
REMARK  5 active torsions:
REMARK  status: ('A' for Active; 'I' for Inactive)
REMARK    1  A    between atoms: C_7  and  C_8
REMARK    2  A    between atoms: C_8  and  N_9
REMARK    3  A    between atoms: N_9  and  C_10
REMARK    4  A    between atoms: N_9  and  C_17
REMARK    5  A    between atoms: C_10  and  C_11
REMARK                            x       y       z     vdW  Elec       q    Type
REMARK                         _______ _______ _______ _____ _____    ______ ____
ROOT
ATOM      1  N   UNL     1      -0.727   0.168  -0.673  0.00  0.00    -0.289 NA
ENDROOT
BRANCH   1   2
ATOM      2  C   UNL     1      -1.019   1.001   0.509  0.00  0.00    +0.057 C 
ATOM      3  C   UNL     1      -1.478   2.414   0.180  0.00  0.00    +0.020 C 
ATOM      4  C   UNL     1      -0.063   2.174   0.670  0.00  0.00    +0.020 C 
ENDBRANCH   1   2
BRANCH   1   5
ATOM      5  C   UNL     1       0.140  -0.973  -0.312  0.00  0.00    +0.123 C 
BRANCH   5  12
ATOM      6  F   UNL     1       1.295  -0.779   2.325  0.00  0.00    -0.205 F 
ATOM      7  C   UNL     1       2.058  -0.426   1.260  0.00  0.00    +0.128 A 
ATOM      8  C   UNL     1       3.360   0.039   1.479  0.00  0.00    +0.038 A 
ATOM      9  C   UNL     1       4.159   0.424   0.400  0.00  0.00    +0.003 A 
ATOM     10  C   UNL     1       3.660   0.349  -0.902  0.00  0.00    +0.000 A 
ATOM     11  C   UNL     1       2.361  -0.114  -1.129  0.00  0.00    +0.008 A 
ATOM     12  C   UNL     1       1.551  -0.511  -0.051  0.00  0.00    +0.002 A 
ENDBRANCH   5  12
ENDBRANCH   1   5
BRANCH   1  13
ATOM     13  C   UNL     1      -1.974  -0.282  -1.336  0.00  0.00    +0.144 C 
BRANCH  13  14
ATOM     14  C   UNL     1      -2.858  -1.131  -0.453  0.00  0.00    +0.104 A 
ATOM     15  N   UNL     1      -3.703  -0.567   0.465  0.00  0.00    -0.143 NA
ATOM     16  N   UNL     1      -4.417  -1.435   1.176  0.00  0.00    -0.109 NA
ATOM     17  S   UNL     1      -4.008  -2.961   0.670  0.00  0.00    +0.049 S 
ATOM     18  C   UNL     1      -2.891  -2.526  -0.486  0.00  0.00    +0.122 A 
ATOM     19 CL   UNL     1      -2.003  -3.624  -1.528  0.00  0.00    -0.072 Cl
ENDBRANCH  13  14
ENDBRANCH   1  13
TORSDOF 5
