REMARK  Name = 
REMARK  6 active torsions:
REMARK  status: ('A' for Active; 'I' for Inactive)
REMARK    1  A    between atoms: C_1  and  C_2
REMARK    2  A    between atoms: C_5  and  O_6
REMARK    3  A    between atoms: O_6  and  C_7
REMARK    4  A    between atoms: C_7  and  C_8
REMARK    5  A    between atoms: C_16  and  C_18
REMARK    6  A    between atoms: C_18  and  O_20
REMARK                            x       y       z     vdW  Elec       q    Type
REMARK                         _______ _______ _______ _____ _____    ______ ____
ROOT
ATOM      1  C   UNL     1      -5.042  -1.864   0.204  0.00  0.00    +0.044 C 
ATOM      2  C   UNL     1      -3.632  -1.358   0.112  0.00  0.00    -0.049 A 
ATOM      3  C   UNL     1      -2.697  -2.024  -0.686  0.00  0.00    +0.007 A 
ATOM      4  C   UNL     1      -1.377  -1.577  -0.746  0.00  0.00    +0.047 A 
ATOM      5  C   UNL     1      -0.961  -0.459   0.005  0.00  0.00    +0.135 A 
ATOM      6  C   UNL     1      -1.899   0.210   0.830  0.00  0.00    +0.101 A 
ATOM      7  C   UNL     1      -3.227  -0.257   0.877  0.00  0.00    +0.022 A 
ENDROOT
BRANCH   6   8
ATOM      8  C   UNL     1      -1.521   1.389   1.653  0.00  0.00    +0.340 C 
ATOM      9  O   UNL     1      -0.342   1.835   1.648  0.00  0.00    -0.245 OA
BRANCH   8  10
ATOM     10  O   UNL     1      -2.475   2.021   2.447  0.00  0.00    -0.477 OA
ATOM     11  H   UNL     1      -2.232   2.826   3.013  0.00  0.00    +0.295 HD
ENDBRANCH   8  10
ENDBRANCH   6   8
BRANCH   5  12
ATOM     12  O   UNL     1       0.365   0.001  -0.050  0.00  0.00    -0.487 OA
BRANCH  12  13
ATOM     13  C   UNL     1       1.400  -0.579  -0.838  0.00  0.00    +0.264 C 
BRANCH  13  14
ATOM     14  C   UNL     1       2.667   0.197  -0.630  0.00  0.00    -0.009 A 
ATOM     15  C   UNL     1       3.551  -0.155   0.401  0.00  0.00    +0.008 A 
ATOM     16  C   UNL     1       4.710   0.594   0.621  0.00  0.00    +0.022 A 
ATOM     17  C   UNL     1       4.992   1.709  -0.176  0.00  0.00    +0.059 A 
ATOM     18 CL   UNL     1       6.459   2.627   0.133  0.00  0.00    -0.082 Cl
ATOM     19  C   UNL     1       4.102   2.078  -1.198  0.00  0.00    +0.060 A 
ATOM     20 CL   UNL     1       4.412   3.480  -2.214  0.00  0.00    -0.082 Cl
ATOM     21  C   UNL     1       2.941   1.326  -1.417  0.00  0.00    +0.028 A 
ENDBRANCH  13  14
ENDBRANCH  12  13
ENDBRANCH   5  12
TORSDOF 5
