REMARK  Name = 
REMARK  6 active torsions:
REMARK  status: ('A' for Active; 'I' for Inactive)
REMARK    1  A    between atoms: C_2  and  C_25
REMARK    2  A    between atoms: N_3  and  C_4
REMARK    3  A    between atoms: C_7  and  C_10
REMARK    4  A    between atoms: N_12  and  C_13
REMARK    5  A    between atoms: C_17  and  C_19
REMARK    6  A    between atoms: N_21  and  C_22
REMARK                            x       y       z     vdW  Elec       q    Type
REMARK                         _______ _______ _______ _____ _____    ______ ____
ROOT
ATOM      1  C   UNL     1       0.547  -0.894   1.023  0.00  0.00    +0.248 C 
ATOM      2  O   UNL     1       1.177   0.019   1.625  0.00  0.00    -0.270 OA
ATOM      3  N   UNL     1       1.254  -2.051   0.536  0.00  0.00    -0.281 N 
ATOM      4  H   UNL     1       0.717  -2.899   0.252  0.00  0.00    +0.155 HD
ENDROOT
BRANCH   1   8
ATOM      5  C   UNL     1      -3.697  -0.410   0.450  0.00  0.00    +0.034 A 
ATOM      6  C   UNL     1      -2.847   0.708   0.522  0.00  0.00    +0.024 A 
ATOM      7  C   UNL     1      -1.474   0.540   0.721  0.00  0.00    +0.015 A 
ATOM      8  C   UNL     1      -0.917  -0.746   0.831  0.00  0.00    +0.037 A 
ATOM      9  C   UNL     1      -1.770  -1.862   0.758  0.00  0.00    +0.015 A 
ATOM     10  C   UNL     1      -3.143  -1.693   0.561  0.00  0.00    +0.024 A 
BRANCH   5  13
ATOM     11  O   UNL     1      -5.501   1.588   1.568  0.00  0.00    -0.270 OA
ATOM     12  C   UNL     1      -5.867   0.897   0.578  0.00  0.00    +0.248 C 
ATOM     13  N   UNL     1      -5.107  -0.266   0.208  0.00  0.00    -0.282 N 
ATOM     14  H   UNL     1      -5.623  -1.083  -0.188  0.00  0.00    +0.155 HD
BRANCH  12  15
ATOM     15  C   UNL     1      -7.099   1.271  -0.161  0.00  0.00    +0.037 A 
ATOM     16  C   UNL     1      -8.002   2.200   0.390  0.00  0.00    +0.013 A 
ATOM     17  C   UNL     1      -9.158   2.566  -0.306  0.00  0.00    +0.001 A 
ATOM     18  C   UNL     1      -9.427   2.009  -1.559  0.00  0.00    +0.000 A 
ATOM     19  C   UNL     1      -8.536   1.093  -2.121  0.00  0.00    +0.001 A 
ATOM     20  C   UNL     1      -7.376   0.726  -1.431  0.00  0.00    +0.013 A 
ENDBRANCH  12  15
ENDBRANCH   5  13
ENDBRANCH   1   8
BRANCH   3  21
ATOM     21  C   UNL     1       2.687  -2.131   0.447  0.00  0.00    +0.034 A 
ATOM     22  C   UNL     1       3.319  -3.367   0.647  0.00  0.00    +0.023 A 
ATOM     23  C   UNL     1       4.704  -3.479   0.524  0.00  0.00    +0.003 A 
ATOM     24  C   UNL     1       5.474  -2.363   0.192  0.00  0.00    +0.013 A 
ATOM     25  C   UNL     1       4.864  -1.114  -0.023  0.00  0.00    +0.038 A 
ATOM     26  C   UNL     1       3.464  -1.013   0.091  0.00  0.00    +0.036 A 
BRANCH  25  27
ATOM     27  C   UNL     1       5.663   0.079  -0.404  0.00  0.00    +0.244 C 
ATOM     28  O   UNL     1       5.099   1.032  -1.008  0.00  0.00    -0.270 OA
ATOM     29  N   UNL     1       7.058   0.177  -0.082  0.00  0.00    -0.308 N 
ATOM     30  H   UNL     1       7.504  -0.534   0.539  0.00  0.00    +0.149 HD
BRANCH  29  31
ATOM     31  C   UNL     1       7.866   1.288  -0.581  0.00  0.00    +0.073 C 
ATOM     32  C   UNL     1       9.098   1.586   0.260  0.00  0.00    +0.024 C 
ATOM     33  C   UNL     1       7.875   2.489   0.349  0.00  0.00    +0.024 C 
ENDBRANCH  29  31
ENDBRANCH  25  27
ENDBRANCH   3  21
TORSDOF 6
