REMARK  Name = 
REMARK  5 active torsions:
REMARK  status: ('A' for Active; 'I' for Inactive)
REMARK    1  A    between atoms: C_1  and  O_2
REMARK    2  A    between atoms: O_2  and  C_3
REMARK    3  A    between atoms: C_8  and  N_9
REMARK    4  A    between atoms: N_9  and  C_10
REMARK    5  A    between atoms: C_12  and  C_13
REMARK                            x       y       z     vdW  Elec       q    Type
REMARK                         _______ _______ _______ _____ _____    ______ ____
ROOT
ATOM      1  C   UNL     1       0.481   0.193  -0.150  0.00  0.00    +0.124 A 
ATOM      2  C   UNL     1      -0.782   0.794  -0.191  0.00  0.00    +0.053 A 
ATOM      3  C   UNL     1      -1.942   0.007  -0.142  0.00  0.00    -0.005 A 
ATOM      4  C   UNL     1      -1.817  -1.402  -0.067  0.00  0.00    +0.008 A 
ATOM      5  C   UNL     1      -2.931  -2.267  -0.072  0.00  0.00    +0.010 A 
ATOM      6  C   UNL     1      -2.752  -3.651   0.009  0.00  0.00    +0.001 A 
ATOM      7  C   UNL     1      -1.467  -4.191   0.087  0.00  0.00    +0.002 A 
ATOM      8  C   UNL     1      -0.352  -3.351   0.074  0.00  0.00    +0.028 A 
ATOM      9  C   UNL     1      -0.518  -1.964  -0.010  0.00  0.00    +0.074 A 
ATOM     10  N   UNL     1       0.576  -1.160  -0.047  0.00  0.00    -0.232 NA
ENDROOT
BRANCH   3  11
ATOM     11  C   UNL     1      -3.255   0.691  -0.149  0.00  0.00    -0.017 A 
ATOM     12  C   UNL     1      -4.123   0.577   0.950  0.00  0.00    +0.010 A 
ATOM     13  C   UNL     1      -5.353   1.242   0.948  0.00  0.00    +0.020 A 
ATOM     14  C   UNL     1      -5.721   2.032  -0.146  0.00  0.00    +0.041 A 
ATOM     15 CL   UNL     1      -7.264   2.866  -0.147  0.00  0.00    -0.084 Cl
ATOM     16  C   UNL     1      -4.856   2.160  -1.238  0.00  0.00    +0.020 A 
ATOM     17  C   UNL     1      -3.625   1.496  -1.238  0.00  0.00    +0.010 A 
ENDBRANCH   3  11
BRANCH   1  18
ATOM     18  N   UNL     1       1.664   1.008  -0.165  0.00  0.00    -0.297 N 
ATOM     19  H   UNL     1       1.562   2.027   0.046  0.00  0.00    +0.154 HD
BRANCH  18  25
ATOM     20  C   UNL     1       4.072   1.036   0.356  0.00  0.00    +0.141 A 
ATOM     21  C   UNL     1       5.372   0.536   0.139  0.00  0.00    +0.047 A 
ATOM     22  C   UNL     1       5.590  -0.488  -0.785  0.00  0.00    +0.004 A 
ATOM     23  C   UNL     1       4.521  -1.019  -1.506  0.00  0.00    +0.002 A 
ATOM     24  C   UNL     1       3.229  -0.532  -1.302  0.00  0.00    +0.027 A 
ATOM     25  C   UNL     1       2.990   0.485  -0.360  0.00  0.00    +0.075 A 
BRANCH  20  27
ATOM     26  C   UNL     1       4.814   2.705   2.069  0.00  0.00    +0.277 C 
ATOM     27  O   UNL     1       3.818   2.064   1.279  0.00  0.00    -0.493 OA
ENDBRANCH  20  27
ENDBRANCH  18  25
ENDBRANCH   1  18
TORSDOF 4
