REMARK  Name = 
REMARK  11 active torsions:
REMARK  status: ('A' for Active; 'I' for Inactive)
REMARK    1  A    between atoms: C_1  and  O_2
REMARK    2  A    between atoms: O_2  and  C_3
REMARK    3  A    between atoms: C_5  and  N_13
REMARK    4  A    between atoms: C_7  and  O_8
REMARK    5  A    between atoms: O_8  and  C_9
REMARK    6  A    between atoms: C_10  and  O_11
REMARK    7  A    between atoms: O_11  and  C_12
REMARK    8  A    between atoms: N_13  and  S_14
REMARK    9  A    between atoms: S_14  and  C_17
REMARK   10  A    between atoms: C_21  and  C_23
REMARK   11  A    between atoms: C_23  and  C_24
REMARK                            x       y       z     vdW  Elec       q    Type
REMARK                         _______ _______ _______ _____ _____    ______ ____
ROOT
ATOM      1  N   UNL     1      -0.021  -2.946   0.416  0.00  0.00    -0.216 N 
ATOM      2  H   UNL     1       0.139  -3.567   1.241  0.00  0.00    +0.174 HD
ENDROOT
BRANCH   1   5
ATOM      3  C   UNL     1      -2.024  -0.227   2.048  0.00  0.00    +0.167 A 
ATOM      4  C   UNL     1      -1.236  -1.378   1.851  0.00  0.00    +0.074 A 
ATOM      5  C   UNL     1      -0.848  -1.779   0.568  0.00  0.00    +0.055 A 
ATOM      6  C   UNL     1      -1.274  -1.031  -0.538  0.00  0.00    +0.074 A 
ATOM      7  C   UNL     1      -2.046   0.130  -0.366  0.00  0.00    +0.167 A 
ATOM      8  C   UNL     1      -2.428   0.536   0.923  0.00  0.00    +0.204 A 
BRANCH   3  10
ATOM      9  C   UNL     1      -2.059  -0.512   4.542  0.00  0.00    +0.277 C 
ATOM     10  O   UNL     1      -2.408   0.169   3.340  0.00  0.00    -0.491 OA
ENDBRANCH   3  10
BRANCH   7  11
ATOM     11  O   UNL     1      -2.453   0.915  -1.457  0.00  0.00    -0.491 OA
ATOM     12  C   UNL     1      -2.090   0.668  -2.812  0.00  0.00    +0.277 C 
ENDBRANCH   7  11
BRANCH   8  13
ATOM     13  O   UNL     1      -3.205   1.708   1.011  0.00  0.00    -0.488 OA
ATOM     14  C   UNL     1      -3.687   2.320   2.202  0.00  0.00    +0.277 C 
ENDBRANCH   8  13
ENDBRANCH   1   5
BRANCH   1  15
ATOM     15  S   UNL     1       0.907  -3.287  -1.012  0.00  0.00    +0.072 S 
ATOM     16  O   UNL     1      -0.013  -3.810  -2.080  0.00  0.00    -0.150 OA
ATOM     17  O   UNL     1       1.939  -4.332  -0.698  0.00  0.00    -0.150 OA
BRANCH  15  18
ATOM     18  C   UNL     1       1.729  -1.827  -1.557  0.00  0.00    +0.109 A 
ATOM     19  C   UNL     1       1.764  -1.497  -2.917  0.00  0.00    +0.029 A 
ATOM     20  C   UNL     1       2.381  -0.318  -3.335  0.00  0.00    +0.003 A 
ATOM     21  C   UNL     1       2.966   0.540  -2.400  0.00  0.00    +0.011 A 
ATOM     22  C   UNL     1       2.945   0.224  -1.027  0.00  0.00    +0.019 A 
ATOM     23  C   UNL     1       2.323  -0.971  -0.619  0.00  0.00    +0.040 A 
BRANCH  22  24
ATOM     24  C   UNL     1       3.557   1.128  -0.016  0.00  0.00    +0.160 C 
ATOM     25  C   UNL     1       4.248   2.400  -0.404  0.00  0.00    +0.091 C 
ATOM     26  O   UNL     1       3.495   0.830   1.208  0.00  0.00    -0.292 OA
ENDBRANCH  22  24
ENDBRANCH  15  18
ENDBRANCH   1  15
TORSDOF 7
