REMARK  Name = 
REMARK  4 active torsions:
REMARK  status: ('A' for Active; 'I' for Inactive)
REMARK    1  A    between atoms: C_1  and  C_2
REMARK    2  A    between atoms: C_2  and  C_3
REMARK    3  A    between atoms: C_2  and  N_11
REMARK    4  A    between atoms: C_6  and  C_7
REMARK                            x       y       z     vdW  Elec       q    Type
REMARK                         _______ _______ _______ _____ _____    ______ ____
ROOT
ATOM      1  C   UNL     1       1.643   2.352   1.317  0.00  0.00    +0.029 C 
ATOM      2  C   UNL     1       1.101   1.235   0.407  0.00  0.00    +0.084 C 
ENDROOT
BRANCH   2   3
ATOM      3  N   UNL     1      -0.065   0.560   1.035  0.00  0.00    -0.295 NA
ATOM      4  C   UNL     1      -1.255   1.440   1.157  0.00  0.00    +0.089 C 
ATOM      5  C   UNL     1      -2.381   0.766   0.389  0.00  0.00    +0.011 C 
ATOM      6  C   UNL     1      -3.812   0.952   0.904  0.00  0.00    +0.032 C 
ATOM      7  C   UNL     1      -4.746  -0.019   0.201  0.00  0.00    -0.031 C 
ATOM      8  C   UNL     1      -4.306  -1.147  -0.410  0.00  0.00    -0.031 C 
ATOM      9  C   UNL     1      -2.830  -1.476  -0.566  0.00  0.00    +0.032 C 
ATOM     10  C   UNL     1      -2.011  -0.689   0.463  0.00  0.00    +0.011 C 
ATOM     11  C   UNL     1      -0.511  -0.635   0.282  0.00  0.00    +0.089 C 
ENDBRANCH   2   3
BRANCH   2  12
ATOM     12  C   UNL     1       2.231   0.251   0.142  0.00  0.00    -0.030 A 
ATOM     13  C   UNL     1       2.820   0.176  -1.131  0.00  0.00    +0.006 A 
ATOM     14  C   UNL     1       3.863  -0.722  -1.377  0.00  0.00    +0.019 A 
ATOM     15  C   UNL     1       4.333  -1.551  -0.351  0.00  0.00    +0.052 A 
ATOM     16  C   UNL     1       3.756  -1.478   0.922  0.00  0.00    +0.019 A 
ATOM     17  C   UNL     1       2.714  -0.581   1.169  0.00  0.00    +0.006 A 
BRANCH  15  18
ATOM     18  C   UNL     1       5.407  -2.476  -0.605  0.00  0.00    +0.099 C 
ATOM     19  N   UNL     1       6.270  -3.219  -0.809  0.00  0.00    -0.191 NA
ENDBRANCH  15  18
ENDBRANCH   2  12
TORSDOF 3
