REMARK  Name = 
REMARK  10 active torsions:
REMARK  status: ('A' for Active; 'I' for Inactive)
REMARK    1  A    between atoms: C_1  and  C_2
REMARK    2  A    between atoms: C_2  and  C_3
REMARK    3  A    between atoms: C_2  and  N_4
REMARK    4  A    between atoms: N_4  and  C_18
REMARK    5  A    between atoms: C_5  and  C_7
REMARK    6  A    between atoms: C_7  and  C_8
REMARK    7  A    between atoms: C_7  and  S_9
REMARK    8  A    between atoms: S_9  and  C_10
REMARK    9  A    between atoms: C_18  and  C_19
REMARK   10  A    between atoms: C_18  and  C_20
REMARK                            x       y       z     vdW  Elec       q    Type
REMARK                         _______ _______ _______ _____ _____    ______ ____
ROOT
ATOM      1  S   UNL     1       1.696  -0.003   2.196  0.00  0.00    -0.073 S 
ENDROOT
BRANCH   1   2
ATOM      2  C   UNL     1       2.923   0.625   1.053  0.00  0.00    +0.195 A 
ATOM      3  N   UNL     1       4.082  -0.054   0.859  0.00  0.00    -0.189 NA
ATOM      4  C   UNL     1       5.011   0.421  -0.010  0.00  0.00    +0.218 A 
ATOM      5  N   UNL     1       6.226  -0.294  -0.217  0.00  0.00    -0.327 N 
ATOM      6  N   UNL     1       4.778   1.577  -0.683  0.00  0.00    -0.181 NA
ATOM      7  C   UNL     1       3.621   2.260  -0.486  0.00  0.00    +0.218 A 
ATOM      8  N   UNL     1       3.378   3.474  -1.193  0.00  0.00    -0.327 N 
ATOM      9  N   UNL     1       2.695   1.782   0.384  0.00  0.00    -0.189 NA
ATOM     10  H   UNL     1       6.944   0.066  -0.884  0.00  0.00    +0.145 HD
ATOM     11  H   UNL     1       6.410  -1.185   0.296  0.00  0.00    +0.145 HD
ATOM     12  H   UNL     1       4.087   3.846  -1.864  0.00  0.00    +0.145 HD
ATOM     13  H   UNL     1       2.489   4.001  -1.048  0.00  0.00    +0.145 HD
ENDBRANCH   1   2
BRANCH   1  14
ATOM     14  C   UNL     1       0.744  -0.920   0.929  0.00  0.00    +0.137 C 
ATOM     15  C   UNL     1       1.382  -2.285   0.665  0.00  0.00    +0.029 C 
BRANCH  14  17
ATOM     16  N   UNL     1      -1.796  -0.524   0.690  0.00  0.00    -0.296 N 
ATOM     17  C   UNL     1      -0.676  -1.088   1.412  0.00  0.00    +0.229 C 
ATOM     18  O   UNL     1      -0.880  -1.701   2.497  0.00  0.00    -0.274 OA
BRANCH  16  20
ATOM     19  C   UNL     1      -3.114  -1.337  -1.299  0.00  0.00    +0.028 C 
ATOM     20  C   UNL     1      -1.829  -0.677  -0.789  0.00  0.00    +0.070 C 
ATOM     21  C   UNL     1      -1.538   0.643  -1.517  0.00  0.00    +0.028 C 
ENDBRANCH  16  20
BRANCH  16  22
ATOM     22  C   UNL     1      -2.879   0.078   1.512  0.00  0.00    +0.070 C 
ATOM     23  C   UNL     1      -4.006  -0.923   1.799  0.00  0.00    +0.028 C 
ATOM     24  C   UNL     1      -3.421   1.395   0.948  0.00  0.00    +0.028 C 
ENDBRANCH  16  22
ENDBRANCH  14  17
ENDBRANCH   1  14
TORSDOF 5
