REMARK  Name = 
REMARK  7 active torsions:
REMARK  status: ('A' for Active; 'I' for Inactive)
REMARK    1  A    between atoms: C_1  and  C_2
REMARK    2  A    between atoms: C_5  and  N_8
REMARK    3  A    between atoms: C_9  and  C_11
REMARK    4  A    between atoms: N_15  and  C_16
REMARK    5  A    between atoms: C_16  and  C_17
REMARK    6  A    between atoms: N_19  and  C_20
REMARK    7  A    between atoms: C_25  and  C_26
REMARK                            x       y       z     vdW  Elec       q    Type
REMARK                         _______ _______ _______ _____ _____    ______ ____
ROOT
ATOM      1  C   UNL     1       1.498  -1.511   0.056  0.00  0.00    +0.089 C 
ATOM      2  C   UNL     1       0.848  -1.173  -1.290  0.00  0.00    +0.015 C 
ATOM      3  C   UNL     1       0.033   0.128  -1.243  0.00  0.00    +0.016 C 
ATOM      4  C   UNL     1      -0.605   0.409   0.133  0.00  0.00    +0.085 C 
ATOM      5  N   UNL     1      -0.801  -0.808   0.947  0.00  0.00    -0.293 NA
ATOM      6  C   UNL     1       0.463  -1.540   1.219  0.00  0.00    +0.097 C 
ENDROOT
BRANCH   1   8
ATOM      7  N   UNL     1       3.969  -0.929  -0.192  0.00  0.00    -0.270 N 
ATOM      8  C   UNL     1       2.671  -0.592   0.327  0.00  0.00    +0.223 C 
ATOM      9  O   UNL     1       2.494   0.491   0.949  0.00  0.00    -0.275 OA
ATOM     10  H   UNL     1       4.049  -1.791  -0.777  0.00  0.00    +0.156 HD
BRANCH   7  15
ATOM     11  C   UNL     1       8.701   2.164   0.735  0.00  0.00    +0.045 C 
ATOM     12  C   UNL     1       7.465   1.361   0.458  0.00  0.00    -0.032 A 
ATOM     13  C   UNL     1       7.515   0.229  -0.367  0.00  0.00    +0.008 A 
ATOM     14  C   UNL     1       6.361  -0.526  -0.588  0.00  0.00    +0.044 A 
ATOM     15  C   UNL     1       5.160  -0.152   0.029  0.00  0.00    +0.125 A 
ATOM     16  N   UNL     1       5.141   0.941   0.844  0.00  0.00    -0.240 NA
ATOM     17  C   UNL     1       6.250   1.693   1.073  0.00  0.00    +0.116 A 
ENDBRANCH   7  15
ENDBRANCH   1   8
BRANCH   5  18
ATOM     18  C   UNL     1      -1.906  -1.662   0.460  0.00  0.00    +0.180 C 
BRANCH  18  19
ATOM     19  C   UNL     1      -3.223  -1.062   0.850  0.00  0.00    +0.231 C 
ATOM     20  O   UNL     1      -3.553  -1.041   2.067  0.00  0.00    -0.274 OA
ATOM     21  N   UNL     1      -4.106  -0.531  -0.151  0.00  0.00    -0.284 N 
ATOM     22  H   UNL     1      -3.921  -0.769  -1.152  0.00  0.00    +0.155 HD
BRANCH  21  23
ATOM     23  C   UNL     1      -5.264   0.261   0.162  0.00  0.00    +0.036 A 
ATOM     24  C   UNL     1      -5.180   1.279   1.129  0.00  0.00    +0.023 A 
ATOM     25  C   UNL     1      -6.287   2.081   1.413  0.00  0.00    +0.002 A 
ATOM     26  C   UNL     1      -7.487   1.883   0.730  0.00  0.00    +0.000 A 
ATOM     27  C   UNL     1      -7.585   0.884  -0.240  0.00  0.00    +0.005 A 
ATOM     28  C   UNL     1      -6.482   0.062  -0.530  0.00  0.00    -0.029 A 
ATOM     29  C   UNL     1      -6.610  -1.005  -1.582  0.00  0.00    +0.045 C 
ENDBRANCH  21  23
ENDBRANCH  18  19
ENDBRANCH   5  18
TORSDOF 5
