REMARK  Name = 
REMARK  7 active torsions:
REMARK  status: ('A' for Active; 'I' for Inactive)
REMARK    1  A    between atoms: C_2  and  O_3
REMARK    2  A    between atoms: C_2  and  C_4
REMARK    3  A    between atoms: C_4  and  C_5
REMARK    4  A    between atoms: C_4  and  C_19
REMARK    5  A    between atoms: C_5  and  C_6
REMARK    6  A    between atoms: N_8  and  C_9
REMARK    7  A    between atoms: C_12  and  C_15
REMARK                            x       y       z     vdW  Elec       q    Type
REMARK                         _______ _______ _______ _____ _____    ______ ____
ROOT
ATOM      1  C   UNL     1       0.115  -0.935   0.927  0.00  0.00    +0.218 C 
ATOM      2  O   UNL     1       0.403  -2.148   0.736  0.00  0.00    -0.275 OA
ATOM      3  N   UNL     1       1.149   0.056   1.010  0.00  0.00    -0.285 N 
ATOM      4  H   UNL     1       0.925   0.960   1.483  0.00  0.00    +0.155 HD
ENDROOT
BRANCH   3   5
ATOM      5  C   UNL     1       2.499  -0.157   0.565  0.00  0.00    +0.033 A 
ATOM      6  C   UNL     1       2.782  -0.947  -0.562  0.00  0.00    +0.024 A 
ATOM      7  C   UNL     1       4.101  -1.123  -0.989  0.00  0.00    +0.014 A 
ATOM      8  C   UNL     1       5.159  -0.487  -0.317  0.00  0.00    +0.055 A 
ATOM      9  C   UNL     1       4.873   0.300   0.812  0.00  0.00    +0.014 A 
ATOM     10  C   UNL     1       3.554   0.475   1.238  0.00  0.00    +0.024 A 
BRANCH   8  11
ATOM     11  C   UNL     1       6.588  -0.716  -0.741  0.00  0.00    +0.417 C 
ATOM     12  F   UNL     1       7.355   0.409  -0.490  0.00  0.00    -0.166 F 
ATOM     13  F   UNL     1       6.662  -0.996  -2.095  0.00  0.00    -0.166 F 
ATOM     14  F   UNL     1       7.108  -1.782  -0.032  0.00  0.00    -0.166 F 
ENDBRANCH   8  11
ENDBRANCH   3   5
BRANCH   1  15
ATOM     15  C   UNL     1      -1.327  -0.534   1.062  0.00  0.00    +0.115 C 
BRANCH  15  16
ATOM     16  C   UNL     1      -1.977  -0.315  -0.320  0.00  0.00    +0.136 C 
BRANCH  16  17
ATOM     17  C   UNL     1      -3.472  -0.103  -0.187  0.00  0.00    -0.033 A 
ATOM     18  C   UNL     1      -4.368  -1.033  -0.747  0.00  0.00    +0.004 A 
ATOM     19  C   UNL     1      -5.749  -0.850  -0.625  0.00  0.00    +0.000 A 
ATOM     20  C   UNL     1      -6.251   0.261   0.057  0.00  0.00    +0.000 A 
ATOM     21  C   UNL     1      -5.373   1.191   0.619  0.00  0.00    +0.000 A 
ATOM     22  C   UNL     1      -3.991   1.012   0.501  0.00  0.00    +0.004 A 
ENDBRANCH  16  17
BRANCH  16  24
ATOM     23  O   UNL     1      -1.134   0.736  -2.303  0.00  0.00    -0.250 OA
ATOM     24  C   UNL     1      -1.350   0.836  -1.065  0.00  0.00    +0.313 C 
BRANCH  24  25
ATOM     25  O   UNL     1      -1.045   2.024  -0.406  0.00  0.00    -0.480 OA
ATOM     26  H   UNL     1      -0.626   2.801  -0.900  0.00  0.00    +0.295 HD
ENDBRANCH  24  25
ENDBRANCH  16  24
ENDBRANCH  15  16
ENDBRANCH   1  15
TORSDOF 7
