REMARK  Name = 
REMARK  4 active torsions:
REMARK  status: ('A' for Active; 'I' for Inactive)
REMARK    1  A    between atoms: C_1  and  C_2
REMARK    2  A    between atoms: C_5  and  N_9
REMARK    3  A    between atoms: C_17  and  S_20
REMARK    4  A    between atoms: S_20  and  C_21
REMARK                            x       y       z     vdW  Elec       q    Type
REMARK                         _______ _______ _______ _____ _____    ______ ____
ROOT
ATOM      1  N   UNL     1      -0.698   0.726  -0.620  0.00  0.00    -0.299 N 
ATOM      2  C   UNL     1       0.015   1.097   0.573  0.00  0.00    +0.134 A 
ATOM      3  N   UNL     1      -0.670   1.648   1.613  0.00  0.00    -0.220 NA
ATOM      4  C   UNL     1      -0.042   2.062   2.742  0.00  0.00    +0.223 A 
ATOM      5  N   UNL     1       1.304   1.944   2.855  0.00  0.00    -0.235 NA
ATOM      6  C   UNL     1       2.046   1.405   1.853  0.00  0.00    +0.076 A 
ATOM      7  C   UNL     1       3.431   1.286   2.001  0.00  0.00    +0.030 A 
ATOM      8  C   UNL     1       4.199   0.716   0.984  0.00  0.00    +0.029 A 
ATOM      9  C   UNL     1       3.588   0.258  -0.190  0.00  0.00    +0.089 A 
ATOM     10  C   UNL     1       2.199   0.368  -0.343  0.00  0.00    +0.040 A 
ATOM     11  C   UNL     1       1.416   0.957   0.670  0.00  0.00    +0.042 A 
ATOM     12  H   UNL     1      -0.254   0.925  -1.544  0.00  0.00    +0.154 HD
ENDROOT
BRANCH   1  17
ATOM     13  C   UNL     1      -6.127  -1.191  -0.707  0.00  0.00    +0.047 C 
ATOM     14  C   UNL     1      -4.719  -0.669  -0.668  0.00  0.00    -0.015 A 
ATOM     15  C   UNL     1      -3.910  -0.899   0.455  0.00  0.00    +0.008 A 
ATOM     16  C   UNL     1      -2.591  -0.438   0.482  0.00  0.00    +0.024 A 
ATOM     17  C   UNL     1      -2.060   0.262  -0.616  0.00  0.00    +0.035 A 
ATOM     18  C   UNL     1      -2.860   0.460  -1.751  0.00  0.00    +0.062 A 
ATOM     19  C   UNL     1      -4.181  -0.000  -1.779  0.00  0.00    +0.128 A 
ATOM     20  F   UNL     1      -4.932   0.204  -2.891  0.00  0.00    -0.205 F 
ENDBRANCH   1  17
BRANCH   9  21
ATOM     21  S   UNL     1       4.556  -0.493  -1.456  0.00  0.00    -0.006 S 
ATOM     22  C   UNL     1       4.558  -2.256  -1.228  0.00  0.00    +0.200 C 
ATOM     23  O   UNL     1       3.976  -0.159  -2.802  0.00  0.00    -0.170 OA
ATOM     24  O   UNL     1       5.966   0.023  -1.397  0.00  0.00    -0.170 OA
ENDBRANCH   9  21
TORSDOF 2
