REMARK  Name = 
REMARK  3 active torsions:
REMARK  status: ('A' for Active; 'I' for Inactive)
REMARK    1  A    between atoms: C_2  and  C_4
REMARK    2  A    between atoms: C_6  and  N_11
REMARK    3  A    between atoms: C_12  and  C_14
REMARK                            x       y       z     vdW  Elec       q    Type
REMARK                         _______ _______ _______ _____ _____    ______ ____
ROOT
ATOM      1  C   UNL     1      -3.196  -0.392  -0.344  0.00  0.00    +0.057 A 
ATOM      2  C   UNL     1      -1.839  -0.047  -0.220  0.00  0.00    +0.037 A 
ATOM      3  C   UNL     1      -0.923  -0.931   0.375  0.00  0.00    +0.034 A 
ATOM      4  C   UNL     1      -1.382  -2.155   0.876  0.00  0.00    +0.025 A 
ATOM      5  C   UNL     1      -2.722  -2.517   0.739  0.00  0.00    +0.022 A 
ATOM      6  C   UNL     1      -3.632  -1.651   0.123  0.00  0.00    +0.053 A 
ATOM      7 CL   UNL     1      -5.283  -2.220  -0.109  0.00  0.00    -0.083 Cl
ENDROOT
BRANCH   1   9
ATOM      8  N   UNL     1      -5.390   0.871  -0.377  0.00  0.00    -0.325 N 
ATOM      9  C   UNL     1      -4.123   0.578  -0.967  0.00  0.00    +0.243 C 
ATOM     10  O   UNL     1      -3.772   1.192  -2.011  0.00  0.00    -0.270 OA
ATOM     11  H   UNL     1      -6.049   1.530  -0.849  0.00  0.00    +0.145 HD
ATOM     12  H   UNL     1      -5.642   0.500   0.566  0.00  0.00    +0.145 HD
ENDBRANCH   1   9
BRANCH   3  13
ATOM     13  N   UNL     1       0.461  -0.577   0.541  0.00  0.00    -0.281 N 
ATOM     14  C   UNL     1       1.229   0.136  -0.448  0.00  0.00    +0.248 C 
ATOM     15  O   UNL     1       0.719   0.399  -1.571  0.00  0.00    -0.270 OA
ATOM     16  H   UNL     1       0.930  -0.908   1.412  0.00  0.00    +0.155 HD
BRANCH  14  17
ATOM     17  C   UNL     1       2.622   0.566  -0.176  0.00  0.00    +0.037 A 
ATOM     18  C   UNL     1       3.135   1.711  -0.816  0.00  0.00    +0.013 A 
ATOM     19  C   UNL     1       4.447   2.130  -0.576  0.00  0.00    +0.001 A 
ATOM     20  C   UNL     1       5.265   1.409   0.296  0.00  0.00    +0.000 A 
ATOM     21  C   UNL     1       4.773   0.263   0.926  0.00  0.00    +0.001 A 
ATOM     22  C   UNL     1       3.461  -0.161   0.691  0.00  0.00    +0.013 A 
ENDBRANCH  14  17
ENDBRANCH   3  13
TORSDOF 3
