REMARK  Name = 
REMARK  6 active torsions:
REMARK  status: ('A' for Active; 'I' for Inactive)
REMARK    1  A    between atoms: C_1  and  C_2
REMARK    2  A    between atoms: C_5  and  C_6
REMARK    3  A    between atoms: C_7  and  C_8
REMARK    4  A    between atoms: C_11  and  C_12
REMARK    5  A    between atoms: C_15  and  C_16
REMARK    6  A    between atoms: C_16  and  O_18
REMARK                            x       y       z     vdW  Elec       q    Type
REMARK                         _______ _______ _______ _____ _____    ______ ____
ROOT
ATOM      1  C   UNL     1       2.352  -0.878  -0.105  0.00  0.00    +0.017 C 
ATOM      2  C   UNL     1       1.079  -1.310   0.010  0.00  0.00    -0.021 C 
ATOM      3  C   UNL     1       0.871  -2.776   0.321  0.00  0.00    +0.041 C 
ATOM      4  C   UNL     1      -0.598  -3.206   0.181  0.00  0.00    -0.005 C 
ATOM      5  C   UNL     1      -0.789  -4.641   0.685  0.00  0.00    +0.008 C 
ATOM      6  C   UNL     1      -1.515  -2.234   0.940  0.00  0.00    +0.041 C 
ATOM      7  C   UNL     1      -1.369  -0.825   0.399  0.00  0.00    -0.007 A 
ATOM      8  C   UNL     1      -2.463   0.079   0.361  0.00  0.00    +0.073 A 
ATOM      9  C   UNL     1      -2.286   1.356  -0.232  0.00  0.00    +0.015 A 
ATOM     10  C   UNL     1      -3.311   2.328  -0.281  0.00  0.00    +0.011 A 
ATOM     11  C   UNL     1      -3.085   3.567  -0.887  0.00  0.00    +0.001 A 
ATOM     12  C   UNL     1      -1.839   3.864  -1.440  0.00  0.00    +0.002 A 
ATOM     13  C   UNL     1      -0.808   2.926  -1.380  0.00  0.00    +0.028 A 
ATOM     14  C   UNL     1      -1.022   1.683  -0.775  0.00  0.00    +0.072 A 
ATOM     15  N   UNL     1       0.005   0.807  -0.682  0.00  0.00    -0.247 NA
ATOM     16  C   UNL     1      -0.109  -0.405  -0.081  0.00  0.00    +0.072 A 
ENDROOT
BRANCH   1  23
ATOM     17  C   UNL     1       1.783   1.441   2.037  0.00  0.00    +0.068 C 
ATOM     18  C   UNL     1       2.554   1.543   0.759  0.00  0.00    +0.067 A 
ATOM     19  N   UNL     1       3.133   2.682   0.329  0.00  0.00    -0.178 NA
ATOM     20  N   UNL     1       3.731   2.421  -0.824  0.00  0.00    -0.281 N 
ATOM     21  C   UNL     1       3.550   1.126  -1.143  0.00  0.00    +0.040 A 
ATOM     22  C   UNL     1       4.036   0.490  -2.406  0.00  0.00    +0.065 C 
ATOM     23  C   UNL     1       2.767   0.535  -0.172  0.00  0.00    +0.018 A 
ATOM     24  H   UNL     1       4.255   3.129  -1.384  0.00  0.00    +0.189 HD
ENDBRANCH   1  23
BRANCH   8  25
ATOM     25  C   UNL     1      -3.768  -0.318   0.936  0.00  0.00    +0.338 C 
ATOM     26  O   UNL     1      -4.813  -0.275   0.233  0.00  0.00    -0.245 OA
BRANCH  25  27
ATOM     27  O   UNL     1      -3.840  -0.766   2.252  0.00  0.00    -0.477 OA
ATOM     28  H   UNL     1      -4.723  -1.052   2.656  0.00  0.00    +0.295 HD
ENDBRANCH  25  27
ENDBRANCH   8  25
TORSDOF 3
