REMARK  Name = 
REMARK  8 active torsions:
REMARK  status: ('A' for Active; 'I' for Inactive)
REMARK    1  A    between atoms: C_2  and  O_3
REMARK    2  A    between atoms: C_2  and  C_4
REMARK    3  A    between atoms: C_4  and  C_5
REMARK    4  A    between atoms: C_5  and  N_6
REMARK    5  A    between atoms: C_5  and  C_18
REMARK    6  A    between atoms: C_7  and  C_9
REMARK    7  A    between atoms: C_9  and  O_10
REMARK    8  A    between atoms: O_10  and  C_11
REMARK                            x       y       z     vdW  Elec       q    Type
REMARK                         _______ _______ _______ _____ _____    ______ ____
ROOT
ATOM      1  C   UNL     1      -1.106   0.034  -1.173  0.00  0.00    +0.114 C 
ENDROOT
BRANCH   1   2
ATOM      2  C   UNL     1      -2.257  -0.333  -0.251  0.00  0.00    -0.027 A 
ATOM      3  C   UNL     1      -2.031  -0.610   1.112  0.00  0.00    +0.008 A 
ATOM      4  C   UNL     1      -3.099  -0.930   1.955  0.00  0.00    +0.038 A 
ATOM      5  C   UNL     1      -4.402  -0.975   1.451  0.00  0.00    +0.123 A 
ATOM      6  F   UNL     1      -5.436  -1.285   2.271  0.00  0.00    -0.205 F 
ATOM      7  C   UNL     1      -4.637  -0.700   0.101  0.00  0.00    +0.038 A 
ATOM      8  C   UNL     1      -3.573  -0.380  -0.746  0.00  0.00    +0.008 A 
ENDBRANCH   1   2
BRANCH   1   9
ATOM      9  N   UNL     1      -0.125  -1.056  -1.221  0.00  0.00    -0.305 N 
ATOM     10  C   UNL     1       0.909  -1.108  -2.214  0.00  0.00    +0.251 C 
ATOM     11  O   UNL     1       0.812  -0.428  -3.271  0.00  0.00    -0.272 OA
ATOM     12  H   UNL     1      -0.116  -1.780  -0.467  0.00  0.00    +0.149 HD
BRANCH  10  13
ATOM     13  C   UNL     1       2.108  -1.986  -2.011  0.00  0.00    +0.324 C 
BRANCH  13  14
ATOM     14  O   UNL     1       2.499  -2.004  -0.637  0.00  0.00    -0.483 OA
BRANCH  14  15
ATOM     15  C   UNL     1       2.957  -0.893   0.089  0.00  0.00    +0.124 A 
ATOM     16  C   UNL     1       3.142  -1.034   1.470  0.00  0.00    +0.046 A 
ATOM     17  C   UNL     1       3.574   0.049   2.243  0.00  0.00    +0.006 A 
ATOM     18  C   UNL     1       3.828   1.282   1.639  0.00  0.00    +0.038 A 
ATOM     19  C   UNL     1       3.656   1.433   0.260  0.00  0.00    +0.127 A 
ATOM     20  F   UNL     1       3.905   2.630  -0.326  0.00  0.00    -0.205 F 
ATOM     21  C   UNL     1       3.227   0.352  -0.516  0.00  0.00    +0.084 A 
ENDBRANCH  14  15
ENDBRANCH  13  14
ENDBRANCH  10  13
ENDBRANCH   1   9
BRANCH   1  22
ATOM     22  C   UNL     1      -0.419   1.342  -0.730  0.00  0.00    +0.147 C 
BRANCH  22  24
ATOM     23  O   UNL     1      -1.613   3.104  -1.823  0.00  0.00    -0.251 OA
ATOM     24  C   UNL     1      -1.373   2.498  -0.745  0.00  0.00    +0.307 C 
BRANCH  24  25
ATOM     25  O   UNL     1      -2.025   2.874   0.425  0.00  0.00    -0.481 OA
ATOM     26  H   UNL     1      -2.687   3.641   0.428  0.00  0.00    +0.295 HD
ENDBRANCH  24  25
ENDBRANCH  22  24
ENDBRANCH   1  22
TORSDOF 8
