REMARK  Name = 
REMARK  7 active torsions:
REMARK  status: ('A' for Active; 'I' for Inactive)
REMARK    1  A    between atoms: C_2  and  C_20
REMARK    2  A    between atoms: N_3  and  C_4
REMARK    3  A    between atoms: C_8  and  S_10
REMARK    4  A    between atoms: S_10  and  N_13
REMARK    5  A    between atoms: N_13  and  C_14
REMARK    6  A    between atoms: C_14  and  C_15
REMARK    7  A    between atoms: C_22  and  C_25
REMARK                            x       y       z     vdW  Elec       q    Type
REMARK                         _______ _______ _______ _____ _____    ______ ____
ROOT
ATOM      1  C   UNL     1       0.394  -2.330  -0.209  0.00  0.00    +0.036 A 
ATOM      2  C   UNL     1       0.822  -3.312   0.697  0.00  0.00    +0.023 A 
ATOM      3  C   UNL     1       2.149  -3.748   0.693  0.00  0.00    +0.004 A 
ATOM      4  C   UNL     1       3.065  -3.200  -0.208  0.00  0.00    +0.028 A 
ATOM      5  C   UNL     1       2.657  -2.207  -1.108  0.00  0.00    +0.107 A 
ATOM      6  C   UNL     1       1.327  -1.766  -1.099  0.00  0.00    +0.051 A 
ENDROOT
BRANCH   1   9
ATOM      7  O   UNL     1      -1.288  -1.698  -2.479  0.00  0.00    -0.268 OA
ATOM      8  C   UNL     1      -1.697  -1.420  -1.319  0.00  0.00    +0.270 C 
ATOM      9  N   UNL     1      -0.970  -1.877  -0.167  0.00  0.00    -0.280 N 
ATOM     10  H   UNL     1      -1.488  -1.980   0.735  0.00  0.00    +0.155 HD
BRANCH   8  11
ATOM     11  C   UNL     1      -2.950  -0.661  -1.169  0.00  0.00    +0.168 A 
ATOM     12  C   UNL     1      -3.501  -0.196   0.009  0.00  0.00    +0.086 A 
ATOM     13  C   UNL     1      -4.651   0.453  -0.402  0.00  0.00    +0.169 A 
ATOM     14  O   UNL     1      -4.736   0.361  -1.710  0.00  0.00    -0.354 OA
ATOM     15  N   UNL     1      -3.731  -0.300  -2.205  0.00  0.00    -0.073 NA
BRANCH  13  16
ATOM     16  C   UNL     1      -5.645   1.149   0.445  0.00  0.00    +0.038 A 
ATOM     17  C   UNL     1      -6.765   1.757  -0.144  0.00  0.00    +0.014 A 
ATOM     18  C   UNL     1      -7.707   2.414   0.649  0.00  0.00    +0.020 A 
ATOM     19  C   UNL     1      -7.523   2.461   2.031  0.00  0.00    +0.111 A 
ATOM     20  N   UNL     1      -6.436   1.871   2.593  0.00  0.00    -0.263 NA
ATOM     21  C   UNL     1      -5.503   1.224   1.843  0.00  0.00    +0.122 A 
ENDBRANCH  13  16
ENDBRANCH   8  11
ENDBRANCH   1   9
BRANCH   5  22
ATOM     22  S   UNL     1       3.814  -1.472  -2.217  0.00  0.00    +0.059 S 
ATOM     23  O   UNL     1       3.200  -1.400  -3.586  0.00  0.00    -0.153 OA
ATOM     24  O   UNL     1       5.060  -2.309  -2.297  0.00  0.00    -0.153 OA
BRANCH  22  25
ATOM     25  N   UNL     1       4.222   0.132  -1.688  0.00  0.00    -0.183 NA
ATOM     26  H   UNL     1       3.327   0.672  -1.645  0.00  0.00    +0.148 HD
BRANCH  25  27
ATOM     27  C   UNL     1       4.788   0.078  -0.339  0.00  0.00    +0.180 C 
BRANCH  27  28
ATOM     28  C   UNL     1       5.247   1.442   0.066  0.00  0.00    +0.120 A 
ATOM     29  C   UNL     1       4.475   2.400   0.693  0.00  0.00    +0.046 A 
ATOM     30  C   UNL     1       5.297   3.496   0.841  0.00  0.00    +0.041 A 
ATOM     31  C   UNL     1       6.513   3.141   0.293  0.00  0.00    +0.195 A 
ATOM     32  O   UNL     1       6.451   1.911  -0.164  0.00  0.00    -0.466 OA
ENDBRANCH  27  28
ENDBRANCH  25  27
ENDBRANCH  22  25
ENDBRANCH   5  22
TORSDOF 7
