REMARK  Name = 
REMARK  4 active torsions:
REMARK  status: ('A' for Active; 'I' for Inactive)
REMARK    1  A    between atoms: C_1  and  C_2
REMARK    2  A    between atoms: C_5  and  N_9
REMARK    3  A    between atoms: C_10  and  C_12
REMARK    4  A    between atoms: C_16  and  C_18
REMARK                            x       y       z     vdW  Elec       q    Type
REMARK                         _______ _______ _______ _____ _____    ______ ____
ROOT
ATOM      1  N   UNL     1      -0.720   0.291  -0.764  0.00  0.00    -0.281 N 
ATOM      2  C   UNL     1       0.322   0.369   0.227  0.00  0.00    +0.248 C 
ATOM      3  O   UNL     1       0.027   0.346   1.454  0.00  0.00    -0.270 OA
ATOM      4  H   UNL     1      -0.481   0.446  -1.768  0.00  0.00    +0.155 HD
ENDROOT
BRANCH   1   9
ATOM      5  C   UNL     1      -6.305  -0.573   0.352  0.00  0.00    +0.045 C 
ATOM      6  C   UNL     1      -4.843  -0.355   0.079  0.00  0.00    -0.032 A 
ATOM      7  C   UNL     1      -4.444   0.519  -0.945  0.00  0.00    +0.006 A 
ATOM      8  C   UNL     1      -3.089   0.726  -1.212  0.00  0.00    +0.023 A 
ATOM      9  C   UNL     1      -2.107   0.077  -0.452  0.00  0.00    +0.035 A 
ATOM     10  C   UNL     1      -2.502  -0.820   0.555  0.00  0.00    +0.043 A 
ATOM     11  C   UNL     1      -3.859  -1.033   0.826  0.00  0.00    +0.046 A 
ATOM     12 CL   UNL     1      -4.293  -2.168   2.100  0.00  0.00    -0.083 Cl
ENDBRANCH   1   9
BRANCH   2  13
ATOM     13  C   UNL     1       1.748   0.486  -0.163  0.00  0.00    +0.038 A 
ATOM     14  C   UNL     1       2.131   1.139  -1.347  0.00  0.00    +0.013 A 
ATOM     15  C   UNL     1       3.480   1.245  -1.690  0.00  0.00    +0.001 A 
ATOM     16  C   UNL     1       4.464   0.706  -0.860  0.00  0.00    +0.013 A 
ATOM     17  C   UNL     1       4.108   0.050   0.332  0.00  0.00    +0.037 A 
ATOM     18  C   UNL     1       2.746  -0.042   0.677  0.00  0.00    +0.026 A 
BRANCH  17  19
ATOM     19  C   UNL     1       5.140  -0.519   1.232  0.00  0.00    +0.242 C 
ATOM     20  N   UNL     1       6.437  -0.881   0.749  0.00  0.00    -0.325 N 
ATOM     21  O   UNL     1       4.872  -0.705   2.450  0.00  0.00    -0.270 OA
ATOM     22  H   UNL     1       6.660  -0.897  -0.270  0.00  0.00    +0.145 HD
ATOM     23  H   UNL     1       7.163  -1.224   1.416  0.00  0.00    +0.145 HD
ENDBRANCH  17  19
ENDBRANCH   2  13
TORSDOF 3
