REMARK  Name = 
REMARK  5 active torsions:
REMARK  status: ('A' for Active; 'I' for Inactive)
REMARK    1  A    between atoms: O_1  and  C_2
REMARK    2  A    between atoms: C_2  and  C_3
REMARK    3  A    between atoms: C_8  and  N_9
REMARK    4  A    between atoms: N_9  and  C_10
REMARK    5  A    between atoms: C_10  and  C_11
REMARK                            x       y       z     vdW  Elec       q    Type
REMARK                         _______ _______ _______ _____ _____    ______ ____
ROOT
ATOM      1  C   UNL     1      -0.161  -0.060  -1.386  0.00  0.00    +0.139 C 
ENDROOT
BRANCH   1   2
ATOM      2  C   UNL     1       1.275  -0.501  -1.260  0.00  0.00    -0.003 A 
ATOM      3  C   UNL     1       1.681  -1.718  -1.835  0.00  0.00    +0.027 A 
ATOM      4  C   UNL     1       3.000  -2.163  -1.705  0.00  0.00    +0.042 A 
ATOM      5 CL   UNL     1       3.487  -3.680  -2.438  0.00  0.00    -0.084 Cl
ATOM      6  C   UNL     1       3.930  -1.405  -0.989  0.00  0.00    +0.030 A 
ATOM      7  C   UNL     1       3.542  -0.198  -0.393  0.00  0.00    +0.002 A 
ATOM      8  C   UNL     1       4.455   0.571   0.342  0.00  0.00    +0.011 A 
ATOM      9  C   UNL     1       4.040   1.765   0.933  0.00  0.00    +0.020 A 
ATOM     10  C   UNL     1       2.716   2.180   0.785  0.00  0.00    +0.111 A 
ATOM     11  N   UNL     1       1.840   1.427   0.069  0.00  0.00    -0.255 NA
ATOM     12  C   UNL     1       2.209   0.257  -0.523  0.00  0.00    +0.076 A 
ENDBRANCH   1   2
BRANCH   1  13
ATOM     13  N   UNL     1      -0.895  -0.400  -0.168  0.00  0.00    -0.338 N 
ATOM     14  H   UNL     1      -0.797  -1.376   0.193  0.00  0.00    +0.146 HD
BRANCH  13  20
ATOM     15  C   UNL     1      -3.213  -0.153   0.695  0.00  0.00    +0.002 A 
ATOM     16  C   UNL     1      -4.191   0.672   1.279  0.00  0.00    +0.027 A 
ATOM     17  C   UNL     1      -3.944   2.034   1.444  0.00  0.00    +0.111 A 
ATOM     18  N   UNL     1      -2.753   2.561   1.066  0.00  0.00    -0.261 NA
ATOM     19  C   UNL     1      -1.772   1.793   0.525  0.00  0.00    +0.134 A 
ATOM     20  C   UNL     1      -1.969   0.416   0.332  0.00  0.00    +0.051 A 
BRANCH  15  21
ATOM     21  C   UNL     1      -3.481  -1.634   0.515  0.00  0.00    +0.193 C 
BRANCH  21  22
ATOM     22  O   UNL     1      -4.850  -1.898   0.358  0.00  0.00    -0.390 OA
ATOM     23  H   UNL     1      -5.098  -1.583  -0.550  0.00  0.00    +0.210 HD
ENDBRANCH  21  22
ENDBRANCH  15  21
ENDBRANCH  13  20
ENDBRANCH   1  13
TORSDOF 5
