REMARK  Name = 
REMARK  8 active torsions:
REMARK  status: ('A' for Active; 'I' for Inactive)
REMARK    1  A    between atoms: C_1  and  C_2
REMARK    2  A    between atoms: C_5  and  C_6
REMARK    3  A    between atoms: C_7  and  C_8
REMARK    4  A    between atoms: C_8  and  N_9
REMARK    5  A    between atoms: C_14  and  C_18
REMARK    6  A    between atoms: C_18  and  C_19
REMARK    7  A    between atoms: C_18  and  C_20
REMARK    8  A    between atoms: C_18  and  C_21
REMARK                            x       y       z     vdW  Elec       q    Type
REMARK                         _______ _______ _______ _____ _____    ______ ____
ROOT
ATOM      1  N   UNL     1      -2.199  -0.196   0.574  0.00  0.00    -0.318 N 
ATOM      2  C   UNL     1      -0.778  -0.321   0.655  0.00  0.00    +0.182 A 
ATOM      3  N   UNL     1       0.071   0.156  -0.300  0.00  0.00    -0.142 NA
ATOM      4  N   UNL     1       1.315  -0.113   0.061  0.00  0.00    -0.212 N 
ATOM      5  C   UNL     1       2.511   0.118  -0.476  0.00  0.00    +0.139 A 
ATOM      6  C   UNL     1       3.426  -0.433   0.435  0.00  0.00    +0.068 A 
ATOM      7  N   UNL     1       2.773  -0.985   1.506  0.00  0.00    -0.224 NA
ATOM      8  C   UNL     1       1.488  -0.745   1.195  0.00  0.00    +0.197 A 
ATOM      9  S   UNL     1       0.038  -1.086   1.966  0.00  0.00    -0.013 S 
ATOM     10  H   UNL     1      -2.777  -0.589   1.352  0.00  0.00    +0.148 HD
ENDROOT
BRANCH   6  11
ATOM     11  C   UNL     1       4.936  -0.421   0.274  0.00  0.00    +0.006 C 
ATOM     12  C   UNL     1       5.318  -1.153  -1.026  0.00  0.00    +0.017 C 
ATOM     13  C   UNL     1       5.431   1.037   0.211  0.00  0.00    +0.017 C 
ATOM     14  C   UNL     1       5.616  -1.129   1.464  0.00  0.00    +0.017 C 
ENDBRANCH   6  11
BRANCH   1  15
ATOM     15  C   UNL     1      -2.840   0.462  -0.562  0.00  0.00    +0.142 C 
BRANCH  15  22
ATOM     16  C   UNL     1      -4.896  -1.792  -1.501  0.00  0.00    +0.068 C 
ATOM     17  C   UNL     1      -5.225  -0.530  -0.772  0.00  0.00    +0.065 A 
ATOM     18  N   UNL     1      -6.470  -0.190  -0.380  0.00  0.00    -0.179 NA
ATOM     19  N   UNL     1      -6.391   0.974   0.245  0.00  0.00    -0.281 N 
ATOM     20  C   UNL     1      -5.111   1.389   0.265  0.00  0.00    +0.038 A 
ATOM     21  C   UNL     1      -4.641   2.660   0.898  0.00  0.00    +0.065 C 
ATOM     22  C   UNL     1      -4.332   0.461  -0.399  0.00  0.00    +0.013 A 
ATOM     23  H   UNL     1      -7.210   1.472   0.659  0.00  0.00    +0.189 HD
ENDBRANCH  15  22
ENDBRANCH   1  15
TORSDOF 3
