MODEL 1
REMARK VINA RESULT:    -6.224      0.000      0.000
REMARK INTER + INTRA:          -6.790
REMARK INTER:                  -6.952
REMARK INTRA:                   0.162
REMARK UNBOUND:                 0.162
REMARK  Name = 
REMARK  3 active torsions:
REMARK  status: ('A' for Active; 'I' for Inactive)
REMARK    1  A    between atoms: C_1  and  C_2
REMARK    2  A    between atoms: C_5  and  S_12
REMARK    3  A    between atoms: S_12  and  N_15
REMARK                            x       y       z     vdW  Elec       q    Type
REMARK                         _______ _______ _______ _____ _____    ______ ____
ROOT
ATOM      1  S   UNL     1     -30.182 -13.464  17.213  0.00  0.00    +0.062 S 
ATOM      2  O   UNL     1     -28.903 -13.716  16.465  0.00  0.00    -0.153 OA
ATOM      3  O   UNL     1     -30.710 -14.785  17.701  0.00  0.00    -0.153 OA
ENDROOT
BRANCH   1   8
ATOM      4  C   UNL     1     -34.462 -10.877  13.698  0.00  0.00    +0.044 C 
ATOM      5  C   UNL     1     -33.380 -11.546  14.510  0.00  0.00    -0.043 A 
ATOM      6  C   UNL     1     -33.276 -11.237  15.871  0.00  0.00    +0.006 A 
ATOM      7  C   UNL     1     -32.298 -11.825  16.665  0.00  0.00    +0.029 A 
ATOM      8  C   UNL     1     -31.387 -12.742  16.127  0.00  0.00    +0.113 A 
ATOM      9  C   UNL     1     -31.468 -13.078  14.751  0.00  0.00    +0.009 A 
ATOM     10  C   UNL     1     -30.578 -14.002  14.160  0.00  0.00    +0.010 A 
ATOM     11  C   UNL     1     -30.674 -14.322  12.807  0.00  0.00    +0.001 A 
ATOM     12  C   UNL     1     -31.654 -13.734  12.014  0.00  0.00    +0.001 A 
ATOM     13  C   UNL     1     -32.547 -12.818  12.569  0.00  0.00    +0.009 A 
ATOM     14  C   UNL     1     -32.474 -12.474  13.936  0.00  0.00    -0.013 A 
ENDBRANCH   1   8
BRANCH   1  15
ATOM     15  N   UNL     1     -29.903 -12.393  18.571  0.00  0.00    -0.174 NA
ATOM     16  C   UNL     1     -28.895 -11.350  18.294  0.00  0.00    +0.112 C 
ATOM     17  C   UNL     1     -27.452 -11.861  18.406  0.00  0.00    +0.051 C 
ATOM     18  C   UNL     1     -27.213 -12.535  19.758  0.00  0.00    +0.150 C 
ATOM     19  O   UNL     1     -25.872 -13.002  19.813  0.00  0.00    -0.372 OA
ATOM     20  C   UNL     1     -25.715 -14.150  20.632  0.00  0.00    +0.188 C 
ATOM     21  C   UNL     1     -26.783 -14.265  21.741  0.00  0.00    +0.188 C 
ATOM     22  O   UNL     1     -28.116 -14.280  21.251  0.00  0.00    -0.370 OA
ATOM     23  C   UNL     1     -28.250 -13.667  19.976  0.00  0.00    +0.163 C 
ATOM     24  C   UNL     1     -29.677 -13.110  19.842  0.00  0.00    +0.143 C 
ENDBRANCH   1  15
TORSDOF 2
ENDMDL
MODEL 2
REMARK VINA RESULT:    -6.024      2.305      3.415
REMARK INTER + INTRA:          -6.566
REMARK INTER:                  -6.451
REMARK INTRA:                  -0.115
REMARK UNBOUND:                 0.162
REMARK  Name = 
REMARK  3 active torsions:
REMARK  status: ('A' for Active; 'I' for Inactive)
REMARK    1  A    between atoms: C_1  and  C_2
REMARK    2  A    between atoms: C_5  and  S_12
REMARK    3  A    between atoms: S_12  and  N_15
REMARK                            x       y       z     vdW  Elec       q    Type
REMARK                         _______ _______ _______ _____ _____    ______ ____
ROOT
ATOM      1  S   UNL     1     -30.919 -13.273  17.744  0.00  0.00    +0.062 S 
ATOM      2  O   UNL     1     -30.659 -14.713  18.085  0.00  0.00    -0.153 OA
ATOM      3  O   UNL     1     -32.068 -12.791  18.586  0.00  0.00    -0.153 OA
ENDROOT
BRANCH   1   8
ATOM      4  C   UNL     1     -32.732 -12.668  11.938  0.00  0.00    +0.044 C 
ATOM      5  C   UNL     1     -32.228 -12.850  13.349  0.00  0.00    -0.043 A 
ATOM      6  C   UNL     1     -32.951 -12.268  14.398  0.00  0.00    +0.006 A 
ATOM      7  C   UNL     1     -32.531 -12.406  15.716  0.00  0.00    +0.029 A 
ATOM      8  C   UNL     1     -31.375 -13.127  16.034  0.00  0.00    +0.113 A 
ATOM      9  C   UNL     1     -30.622 -13.730  14.992  0.00  0.00    +0.009 A 
ATOM     10  C   UNL     1     -29.451 -14.474  15.259  0.00  0.00    +0.010 A 
ATOM     11  C   UNL     1     -28.727 -15.062  14.224  0.00  0.00    +0.001 A 
ATOM     12  C   UNL     1     -29.147 -14.925  12.906  0.00  0.00    +0.001 A 
ATOM     13  C   UNL     1     -30.299 -14.196  12.611  0.00  0.00    +0.009 A 
ATOM     14  C   UNL     1     -31.054 -13.590  13.638  0.00  0.00    -0.013 A 
ENDBRANCH   1   8
BRANCH   1  15
ATOM     15  N   UNL     1     -29.498 -12.297  18.056  0.00  0.00    -0.174 NA
ATOM     16  C   UNL     1     -28.736 -12.740  19.241  0.00  0.00    +0.112 C 
ATOM     17  C   UNL     1     -29.348 -12.263  20.565  0.00  0.00    +0.051 C 
ATOM     18  C   UNL     1     -29.556 -10.748  20.558  0.00  0.00    +0.150 C 
ATOM     19  O   UNL     1     -30.135 -10.353  21.794  0.00  0.00    -0.372 OA
ATOM     20  C   UNL     1     -30.954  -9.199  21.683  0.00  0.00    +0.188 C 
ATOM     21  C   UNL     1     -30.564  -8.279  20.506  0.00  0.00    +0.188 C 
ATOM     22  O   UNL     1     -30.582  -8.928  19.243  0.00  0.00    -0.370 OA
ATOM     23  C   UNL     1     -30.418 -10.337  19.336  0.00  0.00    +0.163 C 
ATOM     24  C   UNL     1     -29.772 -10.846  18.037  0.00  0.00    +0.143 C 
ENDBRANCH   1  15
TORSDOF 2
ENDMDL
MODEL 3
REMARK VINA RESULT:    -5.835      3.166      4.577
REMARK INTER + INTRA:          -6.355
REMARK INTER:                  -6.378
REMARK INTRA:                   0.023
REMARK UNBOUND:                 0.162
REMARK  Name = 
REMARK  3 active torsions:
REMARK  status: ('A' for Active; 'I' for Inactive)
REMARK    1  A    between atoms: C_1  and  C_2
REMARK    2  A    between atoms: C_5  and  S_12
REMARK    3  A    between atoms: S_12  and  N_15
REMARK                            x       y       z     vdW  Elec       q    Type
REMARK                         _______ _______ _______ _____ _____    ______ ____
ROOT
ATOM      1  S   UNL     1     -31.899 -11.496  16.937  0.00  0.00    +0.062 S 
ATOM      2  O   UNL     1     -33.260 -11.898  17.432  0.00  0.00    -0.153 OA
ATOM      3  O   UNL     1     -31.973 -10.070  16.466  0.00  0.00    -0.153 OA
ENDROOT
BRANCH   1   8
ATOM      4  C   UNL     1     -30.029 -15.062  12.337  0.00  0.00    +0.044 C 
ATOM      5  C   UNL     1     -30.547 -14.166  13.436  0.00  0.00    -0.043 A 
ATOM      6  C   UNL     1     -29.836 -14.105  14.641  0.00  0.00    +0.006 A 
ATOM      7  C   UNL     1     -30.268 -13.295  15.685  0.00  0.00    +0.029 A 
ATOM      8  C   UNL     1     -31.427 -12.519  15.564  0.00  0.00    +0.113 A 
ATOM      9  C   UNL     1     -32.167 -12.557  14.354  0.00  0.00    +0.009 A 
ATOM     10  C   UNL     1     -33.340 -11.789  14.178  0.00  0.00    +0.010 A 
ATOM     11  C   UNL     1     -34.053 -11.836  12.982  0.00  0.00    +0.001 A 
ATOM     12  C   UNL     1     -33.619 -12.646  11.938  0.00  0.00    +0.001 A 
ATOM     13  C   UNL     1     -32.466 -13.416  12.082  0.00  0.00    +0.009 A 
ATOM     14  C   UNL     1     -31.722 -13.388  13.281  0.00  0.00    -0.013 A 
ENDBRANCH   1   8
BRANCH   1  15
ATOM     15  N   UNL     1     -30.708 -11.643  18.213  0.00  0.00    -0.174 NA
ATOM     16  C   UNL     1     -31.193 -12.410  19.377  0.00  0.00    +0.112 C 
ATOM     17  C   UNL     1     -32.087 -11.586  20.313  0.00  0.00    +0.051 C 
ATOM     18  C   UNL     1     -31.390 -10.292  20.738  0.00  0.00    +0.150 C 
ATOM     19  O   UNL     1     -32.255  -9.556  21.590  0.00  0.00    -0.372 OA
ATOM     20  C   UNL     1     -32.057  -8.153  21.510  0.00  0.00    +0.188 C 
ATOM     21  C   UNL     1     -30.630  -7.758  21.074  0.00  0.00    +0.188 C 
ATOM     22  O   UNL     1     -30.242  -8.308  19.823  0.00  0.00    -0.370 OA
ATOM     23  C   UNL     1     -30.959  -9.487  19.484  0.00  0.00    +0.163 C 
ATOM     24  C   UNL     1     -30.078 -10.357  18.573  0.00  0.00    +0.143 C 
ENDBRANCH   1  15
TORSDOF 2
ENDMDL
MODEL 4
REMARK VINA RESULT:    -5.800      0.855      2.438
REMARK INTER + INTRA:          -6.316
REMARK INTER:                  -6.340
REMARK INTRA:                   0.024
REMARK UNBOUND:                 0.162
REMARK  Name = 
REMARK  3 active torsions:
REMARK  status: ('A' for Active; 'I' for Inactive)
REMARK    1  A    between atoms: C_1  and  C_2
REMARK    2  A    between atoms: C_5  and  S_12
REMARK    3  A    between atoms: S_12  and  N_15
REMARK                            x       y       z     vdW  Elec       q    Type
REMARK                         _______ _______ _______ _____ _____    ______ ____
ROOT
ATOM      1  S   UNL     1     -30.336 -13.848  16.979  0.00  0.00    +0.062 S 
ATOM      2  O   UNL     1     -28.965 -14.288  16.547  0.00  0.00    -0.153 OA
ATOM      3  O   UNL     1     -31.029 -15.023  17.612  0.00  0.00    -0.153 OA
ENDROOT
BRANCH   1   8
ATOM      4  C   UNL     1     -33.377 -12.160  11.952  0.00  0.00    +0.044 C 
ATOM      5  C   UNL     1     -32.675 -12.547  13.231  0.00  0.00    -0.043 A 
ATOM      6  C   UNL     1     -31.531 -13.349  13.150  0.00  0.00    +0.006 A 
ATOM      7  C   UNL     1     -30.845 -13.733  14.297  0.00  0.00    +0.029 A 
ATOM      8  C   UNL     1     -31.280 -13.331  15.566  0.00  0.00    +0.113 A 
ATOM      9  C   UNL     1     -32.435 -12.516  15.680  0.00  0.00    +0.009 A 
ATOM     10  C   UNL     1     -32.912 -12.078  16.936  0.00  0.00    +0.010 A 
ATOM     11  C   UNL     1     -34.047 -11.275  17.029  0.00  0.00    +0.001 A 
ATOM     12  C   UNL     1     -34.731 -10.890  15.881  0.00  0.00    +0.001 A 
ATOM     13  C   UNL     1     -34.285 -11.307  14.628  0.00  0.00    +0.009 A 
ATOM     14  C   UNL     1     -33.138 -12.120  14.502  0.00  0.00    -0.013 A 
ENDBRANCH   1   8
BRANCH   1  15
ATOM     15  N   UNL     1     -30.229 -12.528  18.126  0.00  0.00    -0.174 NA
ATOM     16  C   UNL     1     -29.149 -11.571  17.813  0.00  0.00    +0.112 C 
ATOM     17  C   UNL     1     -27.763 -12.061  18.255  0.00  0.00    +0.051 C 
ATOM     18  C   UNL     1     -27.765 -12.450  19.733  0.00  0.00    +0.150 C 
ATOM     19  O   UNL     1     -26.469 -12.908  20.095  0.00  0.00    -0.372 OA
ATOM     20  C   UNL     1     -26.488 -13.869  21.139  0.00  0.00    +0.188 C 
ATOM     21  C   UNL     1     -27.720 -13.749  22.062  0.00  0.00    +0.188 C 
ATOM     22  O   UNL     1     -28.960 -13.851  21.377  0.00  0.00    -0.370 OA
ATOM     23  C   UNL     1     -28.868 -13.507  20.001  0.00  0.00    +0.163 C 
ATOM     24  C   UNL     1     -30.233 -12.977  19.532  0.00  0.00    +0.143 C 
ENDBRANCH   1  15
TORSDOF 2
ENDMDL
MODEL 5
REMARK VINA RESULT:    -5.726      3.675      5.013
REMARK INTER + INTRA:          -6.233
REMARK INTER:                  -6.124
REMARK INTRA:                  -0.109
REMARK UNBOUND:                 0.162
REMARK  Name = 
REMARK  3 active torsions:
REMARK  status: ('A' for Active; 'I' for Inactive)
REMARK    1  A    between atoms: C_1  and  C_2
REMARK    2  A    between atoms: C_5  and  S_12
REMARK    3  A    between atoms: S_12  and  N_15
REMARK                            x       y       z     vdW  Elec       q    Type
REMARK                         _______ _______ _______ _____ _____    ______ ____
ROOT
ATOM      1  S   UNL     1     -33.293 -11.719  17.123  0.00  0.00    +0.062 S 
ATOM      2  O   UNL     1     -33.158 -12.062  18.580  0.00  0.00    -0.153 OA
ATOM      3  O   UNL     1     -34.690 -12.063  16.687  0.00  0.00    -0.153 OA
ENDROOT
BRANCH   1   8
ATOM      4  C   UNL     1     -29.199 -15.062  14.052  0.00  0.00    +0.044 C 
ATOM      5  C   UNL     1     -30.243 -14.225  14.751  0.00  0.00    -0.043 A 
ATOM      6  C   UNL     1     -30.194 -14.123  16.147  0.00  0.00    +0.006 A 
ATOM      7  C   UNL     1     -31.131 -13.364  16.840  0.00  0.00    +0.029 A 
ATOM      8  C   UNL     1     -32.150 -12.682  16.165  0.00  0.00    +0.113 A 
ATOM      9  C   UNL     1     -32.223 -12.765  14.750  0.00  0.00    +0.009 A 
ATOM     10  C   UNL     1     -33.228 -12.091  14.020  0.00  0.00    +0.010 A 
ATOM     11  C   UNL     1     -33.283 -12.181  12.630  0.00  0.00    +0.001 A 
ATOM     12  C   UNL     1     -32.346 -12.939  11.938  0.00  0.00    +0.001 A 
ATOM     13  C   UNL     1     -31.343 -13.616  12.630  0.00  0.00    +0.009 A 
ATOM     14  C   UNL     1     -31.261 -13.543  14.038  0.00  0.00    -0.013 A 
ENDBRANCH   1   8
BRANCH   1  15
ATOM     15  N   UNL     1     -32.987 -10.014  16.858  0.00  0.00    -0.174 NA
ATOM     16  C   UNL     1     -31.553  -9.696  16.708  0.00  0.00    +0.112 C 
ATOM     17  C   UNL     1     -30.809  -9.617  18.049  0.00  0.00    +0.051 C 
ATOM     18  C   UNL     1     -31.507  -8.650  19.006  0.00  0.00    +0.150 C 
ATOM     19  O   UNL     1     -30.795  -8.617  20.234  0.00  0.00    -0.372 OA
ATOM     20  C   UNL     1     -31.624  -8.337  21.352  0.00  0.00    +0.188 C 
ATOM     21  C   UNL     1     -32.889  -7.529  20.993  0.00  0.00    +0.188 C 
ATOM     22  O   UNL     1     -33.705  -8.153  20.012  0.00  0.00    -0.370 OA
ATOM     23  C   UNL     1     -32.992  -9.062  19.186  0.00  0.00    +0.163 C 
ATOM     24  C   UNL     1     -33.689  -9.140  17.818  0.00  0.00    +0.143 C 
ENDBRANCH   1  15
TORSDOF 2
ENDMDL
MODEL 6
REMARK VINA RESULT:    -5.609      1.772      2.489
REMARK INTER + INTRA:          -6.103
REMARK INTER:                  -6.187
REMARK INTRA:                   0.085
REMARK UNBOUND:                 0.162
REMARK  Name = 
REMARK  3 active torsions:
REMARK  status: ('A' for Active; 'I' for Inactive)
REMARK    1  A    between atoms: C_1  and  C_2
REMARK    2  A    between atoms: C_5  and  S_12
REMARK    3  A    between atoms: S_12  and  N_15
REMARK                            x       y       z     vdW  Elec       q    Type
REMARK                         _______ _______ _______ _____ _____    ______ ____
ROOT
ATOM      1  S   UNL     1     -30.122 -10.939  17.870  0.00  0.00    +0.062 S 
ATOM      2  O   UNL     1     -30.368 -10.331  19.222  0.00  0.00    -0.153 OA
ATOM      3  O   UNL     1     -28.853 -10.355  17.315  0.00  0.00    -0.153 OA
ENDROOT
BRANCH   1   8
ATOM      4  C   UNL     1     -34.813  -9.364  14.280  0.00  0.00    +0.044 C 
ATOM      5  C   UNL     1     -33.638  -9.801  15.120  0.00  0.00    -0.043 A 
ATOM      6  C   UNL     1     -33.338  -9.077  16.281  0.00  0.00    +0.006 A 
ATOM      7  C   UNL     1     -32.268  -9.437  17.091  0.00  0.00    +0.029 A 
ATOM      8  C   UNL     1     -31.457 -10.533  16.771  0.00  0.00    +0.113 A 
ATOM      9  C   UNL     1     -31.737 -11.288  15.603  0.00  0.00    +0.009 A 
ATOM     10  C   UNL     1     -30.955 -12.406  15.238  0.00  0.00    +0.010 A 
ATOM     11  C   UNL     1     -31.246 -13.139  14.089  0.00  0.00    +0.001 A 
ATOM     12  C   UNL     1     -32.318 -12.778  13.279  0.00  0.00    +0.001 A 
ATOM     13  C   UNL     1     -33.108 -11.679  13.613  0.00  0.00    +0.009 A 
ATOM     14  C   UNL     1     -32.838 -10.919  14.771  0.00  0.00    -0.013 A 
ENDBRANCH   1   8
BRANCH   1  15
ATOM     15  N   UNL     1     -29.976 -12.681  17.993  0.00  0.00    -0.174 NA
ATOM     16  C   UNL     1     -30.881 -13.272  18.999  0.00  0.00    +0.112 C 
ATOM     17  C   UNL     1     -30.360 -13.131  20.436  0.00  0.00    +0.051 C 
ATOM     18  C   UNL     1     -28.938 -13.681  20.560  0.00  0.00    +0.150 C 
ATOM     19  O   UNL     1     -28.493 -13.519  21.899  0.00  0.00    -0.372 OA
ATOM     20  C   UNL     1     -27.087 -13.351  22.003  0.00  0.00    +0.188 C 
ATOM     21  C   UNL     1     -26.304 -13.991  20.837  0.00  0.00    +0.188 C 
ATOM     22  O   UNL     1     -26.689 -13.509  19.557  0.00  0.00    -0.370 OA
ATOM     23  C   UNL     1     -28.009 -12.983  19.532  0.00  0.00    +0.163 C 
ATOM     24  C   UNL     1     -28.578 -13.140  18.112  0.00  0.00    +0.143 C 
ENDBRANCH   1  15
TORSDOF 2
ENDMDL
MODEL 7
REMARK VINA RESULT:    -5.252      3.538      4.815
REMARK INTER + INTRA:          -5.704
REMARK INTER:                  -5.580
REMARK INTRA:                  -0.123
REMARK UNBOUND:                 0.162
REMARK  Name = 
REMARK  3 active torsions:
REMARK  status: ('A' for Active; 'I' for Inactive)
REMARK    1  A    between atoms: C_1  and  C_2
REMARK    2  A    between atoms: C_5  and  S_12
REMARK    3  A    between atoms: S_12  and  N_15
REMARK                            x       y       z     vdW  Elec       q    Type
REMARK                         _______ _______ _______ _____ _____    ______ ____
ROOT
ATOM      1  S   UNL     1     -31.464 -10.159  16.622  0.00  0.00    +0.062 S 
ATOM      2  O   UNL     1     -32.525  -9.095  16.594  0.00  0.00    -0.153 OA
ATOM      3  O   UNL     1     -30.128  -9.495  16.441  0.00  0.00    -0.153 OA
ENDROOT
BRANCH   1   8
ATOM      4  C   UNL     1     -32.549 -13.934  11.938  0.00  0.00    +0.044 C 
ATOM      5  C   UNL     1     -32.231 -13.044  13.114  0.00  0.00    -0.043 A 
ATOM      6  C   UNL     1     -32.929 -11.838  13.250  0.00  0.00    +0.006 A 
ATOM      7  C   UNL     1     -32.676 -10.982  14.315  0.00  0.00    +0.029 A 
ATOM      8  C   UNL     1     -31.713 -11.297  15.282  0.00  0.00    +0.113 A 
ATOM      9  C   UNL     1     -30.990 -12.513  15.172  0.00  0.00    +0.009 A 
ATOM     10  C   UNL     1     -30.013 -12.883  16.124  0.00  0.00    +0.010 A 
ATOM     11  C   UNL     1     -29.315 -14.082  16.003  0.00  0.00    +0.001 A 
ATOM     12  C   UNL     1     -29.570 -14.939  14.937  0.00  0.00    +0.001 A 
ATOM     13  C   UNL     1     -30.528 -14.602  13.982  0.00  0.00    +0.009 A 
ATOM     14  C   UNL     1     -31.252 -13.394  14.079  0.00  0.00    -0.013 A 
ENDBRANCH   1   8
BRANCH   1  15
ATOM     15  N   UNL     1     -31.500 -11.028  18.142  0.00  0.00    -0.174 NA
ATOM     16  C   UNL     1     -32.868 -11.311  18.620  0.00  0.00    +0.112 C 
ATOM     17  C   UNL     1     -33.531 -10.105  19.300  0.00  0.00    +0.051 C 
ATOM     18  C   UNL     1     -32.644  -9.549  20.415  0.00  0.00    +0.150 C 
ATOM     19  O   UNL     1     -33.288  -8.429  21.006  0.00  0.00    -0.372 OA
ATOM     20  C   UNL     1     -32.378  -7.472  21.527  0.00  0.00    +0.188 C 
ATOM     21  C   UNL     1     -31.015  -8.075  21.927  0.00  0.00    +0.188 C 
ATOM     22  O   UNL     1     -30.354  -8.748  20.865  0.00  0.00    -0.370 OA
ATOM     23  C   UNL     1     -31.241  -9.202  19.853  0.00  0.00    +0.163 C 
ATOM     24  C   UNL     1     -30.624 -10.436  19.172  0.00  0.00    +0.143 C 
ENDBRANCH   1  15
TORSDOF 2
ENDMDL
MODEL 8
REMARK VINA RESULT:    -5.213      1.829      2.518
REMARK INTER + INTRA:          -5.661
REMARK INTER:                  -5.825
REMARK INTRA:                   0.164
REMARK UNBOUND:                 0.162
REMARK  Name = 
REMARK  3 active torsions:
REMARK  status: ('A' for Active; 'I' for Inactive)
REMARK    1  A    between atoms: C_1  and  C_2
REMARK    2  A    between atoms: C_5  and  S_12
REMARK    3  A    between atoms: S_12  and  N_15
REMARK                            x       y       z     vdW  Elec       q    Type
REMARK                         _______ _______ _______ _____ _____    ______ ____
ROOT
ATOM      1  S   UNL     1     -31.097 -11.392  17.327  0.00  0.00    +0.062 S 
ATOM      2  O   UNL     1     -31.508 -10.030  17.811  0.00  0.00    -0.153 OA
ATOM      3  O   UNL     1     -29.601 -11.406  17.180  0.00  0.00    -0.153 OA
ENDROOT
BRANCH   1   8
ATOM      4  C   UNL     1     -33.816 -12.357  11.938  0.00  0.00    +0.044 C 
ATOM      5  C   UNL     1     -33.094 -12.162  13.249  0.00  0.00    -0.043 A 
ATOM      6  C   UNL     1     -33.600 -11.225  14.158  0.00  0.00    +0.006 A 
ATOM      7  C   UNL     1     -32.975 -11.007  15.380  0.00  0.00    +0.029 A 
ATOM      8  C   UNL     1     -31.822 -11.716  15.738  0.00  0.00    +0.113 A 
ATOM      9  C   UNL     1     -31.287 -12.674  14.839  0.00  0.00    +0.009 A 
ATOM     10  C   UNL     1     -30.130 -13.421  15.154  0.00  0.00    +0.010 A 
ATOM     11  C   UNL     1     -29.621 -14.361  14.261  0.00  0.00    +0.001 A 
ATOM     12  C   UNL     1     -30.247 -14.579  13.038  0.00  0.00    +0.001 A 
ATOM     13  C   UNL     1     -31.390 -13.858  12.699  0.00  0.00    +0.009 A 
ATOM     14  C   UNL     1     -31.930 -12.899  13.584  0.00  0.00    -0.013 A 
ENDBRANCH   1   8
BRANCH   1  15
ATOM     15  N   UNL     1     -31.598 -12.629  18.461  0.00  0.00    -0.174 NA
ATOM     16  C   UNL     1     -32.302 -12.087  19.641  0.00  0.00    +0.112 C 
ATOM     17  C   UNL     1     -31.351 -11.510  20.698  0.00  0.00    +0.051 C 
ATOM     18  C   UNL     1     -30.286 -12.533  21.094  0.00  0.00    +0.150 C 
ATOM     19  O   UNL     1     -29.423 -11.953  22.062  0.00  0.00    -0.372 OA
ATOM     20  C   UNL     1     -28.102 -12.473  22.015  0.00  0.00    +0.188 C 
ATOM     21  C   UNL     1     -28.026 -13.905  21.444  0.00  0.00    +0.188 C 
ATOM     22  O   UNL     1     -28.572 -14.029  20.138  0.00  0.00    -0.370 OA
ATOM     23  C   UNL     1     -29.527 -13.022  19.834  0.00  0.00    +0.163 C 
ATOM     24  C   UNL     1     -30.521 -13.579  18.801  0.00  0.00    +0.143 C 
ENDBRANCH   1  15
TORSDOF 2
ENDMDL
MODEL 9
REMARK VINA RESULT:    -5.193      3.386      4.672
REMARK INTER + INTRA:          -5.638
REMARK INTER:                  -5.807
REMARK INTRA:                   0.169
REMARK UNBOUND:                 0.162
REMARK  Name = 
REMARK  3 active torsions:
REMARK  status: ('A' for Active; 'I' for Inactive)
REMARK    1  A    between atoms: C_1  and  C_2
REMARK    2  A    between atoms: C_5  and  S_12
REMARK    3  A    between atoms: S_12  and  N_15
REMARK                            x       y       z     vdW  Elec       q    Type
REMARK                         _______ _______ _______ _____ _____    ______ ____
ROOT
ATOM      1  S   UNL     1     -33.531 -11.258  17.090  0.00  0.00    +0.062 S 
ATOM      2  O   UNL     1     -33.081 -12.002  18.316  0.00  0.00    -0.153 OA
ATOM      3  O   UNL     1     -35.033 -11.291  17.045  0.00  0.00    -0.153 OA
ENDROOT
BRANCH   1   8
ATOM      4  C   UNL     1     -31.608 -13.928  11.938  0.00  0.00    +0.044 C 
ATOM      5  C   UNL     1     -32.030 -13.298  13.243  0.00  0.00    -0.043 A 
ATOM      6  C   UNL     1     -33.113 -12.411  13.239  0.00  0.00    +0.006 A 
ATOM      7  C   UNL     1     -33.543 -11.804  14.413  0.00  0.00    +0.029 A 
ATOM      8  C   UNL     1     -32.906 -12.059  15.633  0.00  0.00    +0.113 A 
ATOM      9  C   UNL     1     -31.806 -12.955  15.670  0.00  0.00    +0.009 A 
ATOM     10  C   UNL     1     -31.132 -13.252  16.875  0.00  0.00    +0.010 A 
ATOM     11  C   UNL     1     -30.056 -14.137  16.894  0.00  0.00    +0.001 A 
ATOM     12  C   UNL     1     -29.627 -14.745  15.718  0.00  0.00    +0.001 A 
ATOM     13  C   UNL     1     -30.272 -14.472  14.513  0.00  0.00    +0.009 A 
ATOM     14  C   UNL     1     -31.366 -13.580  14.464  0.00  0.00    -0.013 A 
ENDBRANCH   1   8
BRANCH   1  15
ATOM     15  N   UNL     1     -32.970  -9.599  17.132  0.00  0.00    -0.174 NA
ATOM     16  C   UNL     1     -31.536  -9.461  16.806  0.00  0.00    +0.112 C 
ATOM     17  C   UNL     1     -30.614  -9.797  17.986  0.00  0.00    +0.051 C 
ATOM     18  C   UNL     1     -30.994  -8.988  19.227  0.00  0.00    +0.150 C 
ATOM     19  O   UNL     1     -30.126  -9.340  20.295  0.00  0.00    -0.372 OA
ATOM     20  C   UNL     1     -30.732  -9.211  21.572  0.00  0.00    +0.188 C 
ATOM     21  C   UNL     1     -31.873  -8.172  21.609  0.00  0.00    +0.188 C 
ATOM     22  O   UNL     1     -32.912  -8.432  20.677  0.00  0.00    -0.370 OA
ATOM     23  C   UNL     1     -32.489  -9.218  19.572  0.00  0.00    +0.163 C 
ATOM     24  C   UNL     1     -33.370  -8.880  18.357  0.00  0.00    +0.143 C 
ENDBRANCH   1  15
TORSDOF 2
ENDMDL
