ligand124.pdb
 OpenBabel05162523003D

 45 48  0  0  1  0  0  0  0  0999 V2000
  -30.1820  -13.4640   17.2130 S   0  0  0  0  0  0  0  0  0  0  0  0
  -28.9030  -13.7160   16.4650 O   0  0  0  0  0  0  0  0  0  0  0  0
  -30.7100  -14.7850   17.7010 O   0  0  0  0  0  0  0  0  0  0  0  0
  -34.4620  -10.8770   13.6980 C   0  0  0  0  0  0  0  0  0  0  0  0
  -33.3800  -11.5460   14.5100 C   0  0  0  0  0  0  0  0  0  0  0  0
  -33.2760  -11.2370   15.8710 C   0  0  0  0  0  0  0  0  0  0  0  0
  -32.2980  -11.8250   16.6650 C   0  0  0  0  0  0  0  0  0  0  0  0
  -31.3870  -12.7420   16.1270 C   0  0  0  0  0  0  0  0  0  0  0  0
  -31.4680  -13.0780   14.7510 C   0  0  0  0  0  0  0  0  0  0  0  0
  -30.5780  -14.0020   14.1600 C   0  0  0  0  0  0  0  0  0  0  0  0
  -30.6740  -14.3220   12.8070 C   0  0  0  0  0  0  0  0  0  0  0  0
  -31.6540  -13.7340   12.0140 C   0  0  0  0  0  0  0  0  0  0  0  0
  -32.5470  -12.8180   12.5690 C   0  0  0  0  0  0  0  0  0  0  0  0
  -32.4740  -12.4740   13.9360 C   0  0  0  0  0  0  0  0  0  0  0  0
  -29.9030  -12.3930   18.5710 N   0  0  0  0  0  0  0  0  0  0  0  0
  -28.8950  -11.3500   18.2940 C   0  0  0  0  0  0  0  0  0  0  0  0
  -27.4520  -11.8610   18.4060 C   0  0  0  0  0  0  0  0  0  0  0  0
  -27.2130  -12.5350   19.7580 C   0  0  2  0  0  0  0  0  0  0  0  0
  -25.8720  -13.0020   19.8130 O   0  0  0  0  0  0  0  0  0  0  0  0
  -25.7150  -14.1500   20.6320 C   0  0  0  0  0  0  0  0  0  0  0  0
  -26.7830  -14.2650   21.7410 C   0  0  0  0  0  0  0  0  0  0  0  0
  -28.1160  -14.2800   21.2510 O   0  0  0  0  0  0  0  0  0  0  0  0
  -28.2500  -13.6670   19.9760 C   0  0  1  0  0  0  0  0  0  0  0  0
  -29.6770  -13.1100   19.8420 C   0  0  0  0  0  0  0  0  0  0  0  0
  -34.4088  -11.2164   12.6846 H   0  0  0  0  0  0  0  0  0  0  0  0
  -34.3250   -9.8162   13.7265 H   0  0  0  0  0  0  0  0  0  0  0  0
  -35.4193  -11.1241   14.1071 H   0  0  0  0  0  0  0  0  0  0  0  0
  -33.9348  -10.5629   16.2912 H   0  0  0  0  0  0  0  0  0  0  0  0
  -32.2426  -11.5818   17.6664 H   0  0  0  0  0  0  0  0  0  0  0  0
  -29.8471  -14.4459   14.7377 H   0  0  0  0  0  0  0  0  0  0  0  0
  -30.0148  -14.9985   12.3914 H   0  0  0  0  0  0  0  0  0  0  0  0
  -31.7203  -13.9761   11.0130 H   0  0  0  0  0  0  0  0  0  0  0  0
  -33.2703  -12.3862   11.9728 H   0  0  0  0  0  0  0  0  0  0  0  0
  -29.0290  -10.5525   18.9947 H   0  0  0  0  0  0  0  0  0  0  0  0
  -29.0408  -11.0259   17.2847 H   0  0  0  0  0  0  0  0  0  0  0  0
  -26.7793  -11.0353   18.3028 H   0  0  0  0  0  0  0  0  0  0  0  0
  -27.2839  -12.5803   17.6319 H   0  0  0  0  0  0  0  0  0  0  0  0
  -27.3474  -11.8351   20.5561 H   0  0  0  0  0  0  0  0  0  0  0  0
  -24.7505  -14.1077   21.0935 H   0  0  0  0  0  0  0  0  0  0  0  0
  -25.8244  -15.0059   19.9992 H   0  0  0  0  0  0  0  0  0  0  0  0
  -26.6753  -13.4301   22.4015 H   0  0  0  0  0  0  0  0  0  0  0  0
  -26.6211  -15.2002   22.2351 H   0  0  0  0  0  0  0  0  0  0  0  0
  -28.0652  -14.4074   19.2260 H   0  0  0  0  0  0  0  0  0  0  0  0
  -30.3675  -13.9253   19.9003 H   0  0  0  0  0  0  0  0  0  0  0  0
  -29.8200  -12.4058   20.6349 H   0  0  0  0  0  0  0  0  0  0  0  0
  1  8  1  0  0  0  0
  1  2  2  0  0  0  0
  1  3  2  0  0  0  0
  1 15  1  0  0  0  0
  4  5  1  0  0  0  0
  4 25  1  0  0  0  0
  4 26  1  0  0  0  0
  4 27  1  0  0  0  0
  5 14  2  0  0  0  0
  5  6  1  0  0  0  0
  6  7  2  0  0  0  0
  6 28  1  0  0  0  0
  7  8  1  0  0  0  0
  7 29  1  0  0  0  0
  8  9  2  0  0  0  0
  9 14  1  0  0  0  0
  9 10  1  0  0  0  0
 10 11  2  0  0  0  0
 10 30  1  0  0  0  0
 11 12  1  0  0  0  0
 11 31  1  0  0  0  0
 12 13  2  0  0  0  0
 12 32  1  0  0  0  0
 13 14  1  0  0  0  0
 13 33  1  0  0  0  0
 15 16  1  0  0  0  0
 15 24  1  0  0  0  0
 16 17  1  0  0  0  0
 16 34  1  0  0  0  0
 16 35  1  0  0  0  0
 17 18  1  0  0  0  0
 17 36  1  0  0  0  0
 17 37  1  0  0  0  0
 18 19  1  0  0  0  0
 18 23  1  0  0  0  0
 18 38  1  1  0  0  0
 19 20  1  0  0  0  0
 20 21  1  0  0  0  0
 20 39  1  0  0  0  0
 20 40  1  0  0  0  0
 21 22  1  0  0  0  0
 21 41  1  0  0  0  0
 21 42  1  0  0  0  0
 22 23  1  0  0  0  0
 23 24  1  0  0  0  0
 23 43  1  6  0  0  0
 24 44  1  0  0  0  0
 24 45  1  0  0  0  0
M  END
>  <MASTER>
        0    0    0    0    0    0    0    0   24    0   24    0

$$$$
