=
 OpenBabel05162522083D

 24 27  0  0  1  0  0  0  0  0999 V2000
  -30.1820  -13.4640   17.2130 S   0  0  0  0  0  0  0  0  0  0  0  0
  -28.9030  -13.7160   16.4650 O   0  0  0  0  0  0  0  0  0  0  0  0
  -30.7100  -14.7850   17.7010 O   0  0  0  0  0  0  0  0  0  0  0  0
  -34.4620  -10.8770   13.6980 C   0  0  0  0  0  1  0  0  0  0  0  0
  -33.3800  -11.5460   14.5100 C   0  0  0  0  0  0  0  0  0  0  0  0
  -33.2760  -11.2370   15.8710 C   0  0  0  0  0  3  0  0  0  0  0  0
  -32.2980  -11.8250   16.6650 C   0  0  0  0  0  3  0  0  0  0  0  0
  -31.3870  -12.7420   16.1270 C   0  0  0  0  0  0  0  0  0  0  0  0
  -31.4680  -13.0780   14.7510 C   0  0  0  0  0  0  0  0  0  0  0  0
  -30.5780  -14.0020   14.1600 C   0  0  0  0  0  3  0  0  0  0  0  0
  -30.6740  -14.3220   12.8070 C   0  0  0  0  0  3  0  0  0  0  0  0
  -31.6540  -13.7340   12.0140 C   0  0  0  0  0  3  0  0  0  0  0  0
  -32.5470  -12.8180   12.5690 C   0  0  0  0  0  3  0  0  0  0  0  0
  -32.4740  -12.4740   13.9360 C   0  0  0  0  0  0  0  0  0  0  0  0
  -29.9030  -12.3930   18.5710 N   0  0  0  0  0  0  0  0  0  0  0  0
  -28.8950  -11.3500   18.2940 C   0  0  0  0  0  2  0  0  0  0  0  0
  -27.4520  -11.8610   18.4060 C   0  0  0  0  0  2  0  0  0  0  0  0
  -27.2130  -12.5350   19.7580 C   0  0  2  0  0  3  0  0  0  0  0  0
  -25.8720  -13.0020   19.8130 O   0  0  0  0  0  0  0  0  0  0  0  0
  -25.7150  -14.1500   20.6320 C   0  0  0  0  0  2  0  0  0  0  0  0
  -26.7830  -14.2650   21.7410 C   0  0  0  0  0  2  0  0  0  0  0  0
  -28.1160  -14.2800   21.2510 O   0  0  0  0  0  0  0  0  0  0  0  0
  -28.2500  -13.6670   19.9760 C   0  0  1  0  0  3  0  0  0  0  0  0
  -29.6770  -13.1100   19.8420 C   0  0  0  0  0  2  0  0  0  0  0  0
  1  3  2  0  0  0  0
  1 15  1  0  0  0  0
  2  1  2  0  0  0  0
  4  5  1  0  0  0  0
  5  6  1  0  0  0  0
  6  7  2  0  0  0  0
  8  7  1  0  0  0  0
  8  1  1  0  0  0  0
  9  8  2  0  0  0  0
 10  9  1  0  0  0  0
 11 10  2  0  0  0  0
 12 13  2  0  0  0  0
 12 11  1  0  0  0  0
 13 14  1  0  0  0  0
 14  5  2  0  0  0  0
 14  9  1  0  0  0  0
 15 24  1  0  0  0  0
 16 17  1  0  0  0  0
 16 15  1  0  0  0  0
 18 17  1  6  0  0  0
 18 19  1  0  0  0  0
 18 23  1  0  0  0  0
 19 20  1  0  0  0  0
 20 21  1  0  0  0  0
 22 21  1  0  0  0  0
 23 24  1  1  0  0  0
 23 22  1  0  0  0  0
M  END
>  <MODEL>
1

>  <REMARK>
 VINA RESULT:    -6.224      0.000      0.000
 INTER + INTRA:          -6.790
 INTER:                  -6.952
 INTRA:                   0.162
 UNBOUND:                 0.162
  Name = 
  3 active torsions:
  status: ('A' for Active; 'I' for Inactive)
    1  A    between atoms: C_1  and  C_2
    2  A    between atoms: C_5  and  S_12
    3  A    between atoms: S_12  and  N_15
                            x       y       z     vdW  Elec       q    Type
                         _______ _______ _______ _____ _____    ______ ____

>  <TORSDO>
F 2

$$$$
=
 OpenBabel05162522083D

 24 27  0  0  1  0  0  0  0  0999 V2000
  -30.9190  -13.2730   17.7440 S   0  0  0  0  0  0  0  0  0  0  0  0
  -30.6590  -14.7130   18.0850 O   0  0  0  0  0  0  0  0  0  0  0  0
  -32.0680  -12.7910   18.5860 O   0  0  0  0  0  0  0  0  0  0  0  0
  -32.7320  -12.6680   11.9380 C   0  0  0  0  0  1  0  0  0  0  0  0
  -32.2280  -12.8500   13.3490 C   0  0  0  0  0  0  0  0  0  0  0  0
  -32.9510  -12.2680   14.3980 C   0  0  0  0  0  3  0  0  0  0  0  0
  -32.5310  -12.4060   15.7160 C   0  0  0  0  0  3  0  0  0  0  0  0
  -31.3750  -13.1270   16.0340 C   0  0  0  0  0  0  0  0  0  0  0  0
  -30.6220  -13.7300   14.9920 C   0  0  0  0  0  0  0  0  0  0  0  0
  -29.4510  -14.4740   15.2590 C   0  0  0  0  0  3  0  0  0  0  0  0
  -28.7270  -15.0620   14.2240 C   0  0  0  0  0  3  0  0  0  0  0  0
  -29.1470  -14.9250   12.9060 C   0  0  0  0  0  3  0  0  0  0  0  0
  -30.2990  -14.1960   12.6110 C   0  0  0  0  0  3  0  0  0  0  0  0
  -31.0540  -13.5900   13.6380 C   0  0  0  0  0  0  0  0  0  0  0  0
  -29.4980  -12.2970   18.0560 N   0  0  0  0  0  0  0  0  0  0  0  0
  -28.7360  -12.7400   19.2410 C   0  0  0  0  0  2  0  0  0  0  0  0
  -29.3480  -12.2630   20.5650 C   0  0  0  0  0  2  0  0  0  0  0  0
  -29.5560  -10.7480   20.5580 C   0  0  2  0  0  3  0  0  0  0  0  0
  -30.1350  -10.3530   21.7940 O   0  0  0  0  0  0  0  0  0  0  0  0
  -30.9540   -9.1990   21.6830 C   0  0  0  0  0  2  0  0  0  0  0  0
  -30.5640   -8.2790   20.5060 C   0  0  0  0  0  2  0  0  0  0  0  0
  -30.5820   -8.9280   19.2430 O   0  0  0  0  0  0  0  0  0  0  0  0
  -30.4180  -10.3370   19.3360 C   0  0  1  0  0  3  0  0  0  0  0  0
  -29.7720  -10.8460   18.0370 C   0  0  0  0  0  2  0  0  0  0  0  0
  1 15  1  0  0  0  0
  1  2  2  0  0  0  0
  1  3  2  0  0  0  0
  4  5  1  0  0  0  0
  5 14  2  0  0  0  0
  5  6  1  0  0  0  0
  6  7  2  0  0  0  0
  7  8  1  0  0  0  0
  8  1  1  0  0  0  0
  9 10  1  0  0  0  0
  9  8  2  0  0  0  0
 11 10  2  0  0  0  0
 12 11  1  0  0  0  0
 13 12  2  0  0  0  0
 13 14  1  0  0  0  0
 14  9  1  0  0  0  0
 15 16  1  0  0  0  0
 16 17  1  0  0  0  0
 18 17  1  1  0  0  0
 18 19  1  0  0  0  0
 20 19  1  0  0  0  0
 21 20  1  0  0  0  0
 22 23  1  0  0  0  0
 22 21  1  0  0  0  0
 23 24  1  6  0  0  0
 23 18  1  0  0  0  0
 24 15  1  0  0  0  0
M  END
>  <MODEL>
2

>  <REMARK>
 VINA RESULT:    -6.024      2.305      3.415
 INTER + INTRA:          -6.566
 INTER:                  -6.451
 INTRA:                  -0.115
 UNBOUND:                 0.162
  Name = 
  3 active torsions:
  status: ('A' for Active; 'I' for Inactive)
    1  A    between atoms: C_1  and  C_2
    2  A    between atoms: C_5  and  S_12
    3  A    between atoms: S_12  and  N_15
                            x       y       z     vdW  Elec       q    Type
                         _______ _______ _______ _____ _____    ______ ____

>  <TORSDO>
F 2

$$$$