MODEL 1
REMARK VINA RESULT:    -6.563      0.000      0.000
REMARK INTER + INTRA:          -6.992
REMARK INTER:                  -7.331
REMARK INTRA:                   0.339
REMARK UNBOUND:                 0.339
REMARK  Name = 
REMARK  4 active torsions:
REMARK  status: ('A' for Active; 'I' for Inactive)
REMARK    1  A    between atoms: C_1  and  C_2
REMARK    2  A    between atoms: C_5  and  N_9
REMARK    3  A    between atoms: C_7  and  C_8
REMARK    4  A    between atoms: N_20  and  C_21
REMARK                            x       y       z     vdW  Elec       q    Type
REMARK                         _______ _______ _______ _____ _____    ______ ____
ROOT
ATOM      1  N   UNL     1     -32.377  -9.173  16.534  0.00  0.00    -0.298 N 
ATOM      2  C   UNL     1     -31.521  -9.549  17.628  0.00  0.00    +0.156 A 
ATOM      3  N   UNL     1     -30.764 -10.679  17.552  0.00  0.00    -0.197 NA
ATOM      4  C   UNL     1     -29.928 -11.053  18.558  0.00  0.00    +0.223 A 
ATOM      5  N   UNL     1     -29.809 -10.268  19.665  0.00  0.00    -0.193 NA
ATOM      6  C   UNL     1     -30.533  -9.127  19.790  0.00  0.00    +0.185 A 
ATOM      7  N   UNL     1     -30.412  -8.355  20.901  0.00  0.00    -0.233 NA
ATOM      8  C   UNL     1     -31.133  -7.210  21.037  0.00  0.00    +0.133 A 
ATOM      9  C   UNL     1     -32.011  -6.820  20.020  0.00  0.00    +0.131 A 
ATOM     10  N   UNL     1     -32.132  -7.590  18.907  0.00  0.00    -0.247 NA
ATOM     11  C   UNL     1     -31.411  -8.736  18.766  0.00  0.00    +0.148 A 
ATOM     12  N   UNL     1     -29.139 -12.242  18.413  0.00  0.00    -0.283 N 
ATOM     13  H   UNL     1     -32.649  -8.169  16.439  0.00  0.00    +0.154 HD
ATOM     14  H   UNL     1     -29.034 -12.637  17.450  0.00  0.00    +0.155 HD
ENDROOT
BRANCH   1  19
ATOM     15  C   UNL     1     -33.947 -12.764  12.305  0.00  0.00    +0.044 C 
ATOM     16  C   UNL     1     -33.523 -11.838  13.416  0.00  0.00    -0.047 A 
ATOM     17  C   UNL     1     -34.377 -10.795  13.807  0.00  0.00    +0.005 A 
ATOM     18  C   UNL     1     -34.010  -9.920  14.830  0.00  0.00    +0.023 A 
ATOM     19  C   UNL     1     -32.783 -10.076  15.492  0.00  0.00    +0.033 A 
ATOM     20  C   UNL     1     -31.913 -11.097  15.086  0.00  0.00    +0.027 A 
ATOM     21  C   UNL     1     -32.269 -11.983  14.055  0.00  0.00    -0.046 A 
ATOM     22  C   UNL     1     -31.313 -13.079  13.661  0.00  0.00    +0.044 C 
ENDBRANCH   1  19
BRANCH  12  23
ATOM     23  C   UNL     1     -28.399 -12.857  19.481  0.00  0.00    +0.036 A 
ATOM     24  C   UNL     1     -29.088 -13.353  20.599  0.00  0.00    +0.023 A 
ATOM     25  C   UNL     1     -28.389 -13.934  21.661  0.00  0.00    +0.005 A 
ATOM     26  C   UNL     1     -26.994 -14.011  21.622  0.00  0.00    +0.038 A 
ATOM     27  C   UNL     1     -26.296 -13.499  20.525  0.00  0.00    +0.125 A 
ATOM     28  F   UNL     1     -24.942 -13.555  20.497  0.00  0.00    -0.205 F 
ATOM     29  C   UNL     1     -26.994 -12.916  19.460  0.00  0.00    +0.061 A 
ENDBRANCH  12  23
TORSDOF 2
ENDMDL
MODEL 2
REMARK VINA RESULT:    -5.329      3.274      5.822
REMARK INTER + INTRA:          -5.613
REMARK INTER:                  -5.923
REMARK INTRA:                   0.311
REMARK UNBOUND:                 0.339
REMARK  Name = 
REMARK  4 active torsions:
REMARK  status: ('A' for Active; 'I' for Inactive)
REMARK    1  A    between atoms: C_1  and  C_2
REMARK    2  A    between atoms: C_5  and  N_9
REMARK    3  A    between atoms: C_7  and  C_8
REMARK    4  A    between atoms: N_20  and  C_21
REMARK                            x       y       z     vdW  Elec       q    Type
REMARK                         _______ _______ _______ _____ _____    ______ ____
ROOT
ATOM      1  N   UNL     1     -29.436 -14.247  17.398  0.00  0.00    -0.298 N 
ATOM      2  C   UNL     1     -29.891 -13.394  18.465  0.00  0.00    +0.156 A 
ATOM      3  N   UNL     1     -31.053 -12.696  18.339  0.00  0.00    -0.197 NA
ATOM      4  C   UNL     1     -31.524 -11.898  19.335  0.00  0.00    +0.223 A 
ATOM      5  N   UNL     1     -30.841 -11.811  20.510  0.00  0.00    -0.193 NA
ATOM      6  C   UNL     1     -29.683 -12.492  20.694  0.00  0.00    +0.185 A 
ATOM      7  N   UNL     1     -29.006 -12.393  21.867  0.00  0.00    -0.233 NA
ATOM      8  C   UNL     1     -27.843 -13.070  22.062  0.00  0.00    +0.133 A 
ATOM      9  C   UNL     1     -27.336 -13.881  21.042  0.00  0.00    +0.131 A 
ATOM     10  N   UNL     1     -28.011 -13.983  19.867  0.00  0.00    -0.247 NA
ATOM     11  C   UNL     1     -29.177 -13.308  19.669  0.00  0.00    +0.148 A 
ATOM     12  N   UNL     1     -32.766 -11.203  19.153  0.00  0.00    -0.283 N 
ATOM     13  H   UNL     1     -28.785 -15.030  17.631  0.00  0.00    +0.154 HD
ATOM     14  H   UNL     1     -33.392 -11.527  18.381  0.00  0.00    +0.155 HD
ENDROOT
BRANCH   1  19
ATOM     15  C   UNL     1     -31.320 -13.840  11.964  0.00  0.00    +0.044 C 
ATOM     16  C   UNL     1     -30.813 -13.959  13.379  0.00  0.00    -0.047 A 
ATOM     17  C   UNL     1     -31.647 -13.579  14.443  0.00  0.00    +0.005 A 
ATOM     18  C   UNL     1     -31.204 -13.674  15.762  0.00  0.00    +0.023 A 
ATOM     19  C   UNL     1     -29.919 -14.161  16.047  0.00  0.00    +0.033 A 
ATOM     20  C   UNL     1     -29.071 -14.512  14.988  0.00  0.00    +0.027 A 
ATOM     21  C   UNL     1     -29.504 -14.418  13.654  0.00  0.00    -0.046 A 
ATOM     22  C   UNL     1     -28.569 -14.824  12.545  0.00  0.00    +0.044 C 
ENDBRANCH   1  19
BRANCH  12  23
ATOM     23  C   UNL     1     -33.248 -10.168  20.026  0.00  0.00    +0.036 A 
ATOM     24  C   UNL     1     -33.915 -10.521  21.209  0.00  0.00    +0.023 A 
ATOM     25  C   UNL     1     -34.415  -9.531  22.062  0.00  0.00    +0.005 A 
ATOM     26  C   UNL     1     -34.265  -8.181  21.733  0.00  0.00    +0.038 A 
ATOM     27  C   UNL     1     -33.623  -7.820  20.546  0.00  0.00    +0.125 A 
ATOM     28  F   UNL     1     -33.496  -6.510  20.216  0.00  0.00    -0.205 F 
ATOM     29  C   UNL     1     -33.123  -8.807  19.689  0.00  0.00    +0.061 A 
ENDBRANCH  12  23
TORSDOF 2
ENDMDL
MODEL 3
REMARK VINA RESULT:    -5.002      2.512      5.024
REMARK INTER + INTRA:          -5.247
REMARK INTER:                  -5.604
REMARK INTRA:                   0.357
REMARK UNBOUND:                 0.339
REMARK  Name = 
REMARK  4 active torsions:
REMARK  status: ('A' for Active; 'I' for Inactive)
REMARK    1  A    between atoms: C_1  and  C_2
REMARK    2  A    between atoms: C_5  and  N_9
REMARK    3  A    between atoms: C_7  and  C_8
REMARK    4  A    between atoms: N_20  and  C_21
REMARK                            x       y       z     vdW  Elec       q    Type
REMARK                         _______ _______ _______ _____ _____    ______ ____
ROOT
ATOM      1  N   UNL     1     -32.675 -11.705  15.760  0.00  0.00    -0.298 N 
ATOM      2  C   UNL     1     -31.534 -12.406  16.287  0.00  0.00    +0.156 A 
ATOM      3  N   UNL     1     -31.173 -12.250  17.591  0.00  0.00    -0.197 NA
ATOM      4  C   UNL     1     -30.114 -12.913  18.128  0.00  0.00    +0.223 A 
ATOM      5  N   UNL     1     -29.404 -13.785  17.361  0.00  0.00    -0.193 NA
ATOM      6  C   UNL     1     -29.724 -13.986  16.058  0.00  0.00    +0.185 A 
ATOM      7  N   UNL     1     -29.005 -14.854  15.299  0.00  0.00    -0.233 NA
ATOM      8  C   UNL     1     -29.316 -15.062  13.992  0.00  0.00    +0.133 A 
ATOM      9  C   UNL     1     -30.392 -14.376  13.419  0.00  0.00    +0.131 A 
ATOM     10  N   UNL     1     -31.114 -13.508  14.176  0.00  0.00    -0.247 NA
ATOM     11  C   UNL     1     -30.806 -13.298  15.486  0.00  0.00    +0.148 A 
ATOM     12  N   UNL     1     -29.794 -12.725  19.514  0.00  0.00    -0.283 N 
ATOM     13  H   UNL     1     -33.151 -12.096  14.916  0.00  0.00    +0.154 HD
ATOM     14  H   UNL     1     -30.527 -12.296  20.124  0.00  0.00    +0.155 HD
ENDROOT
BRANCH   1  19
ATOM     15  C   UNL     1     -35.022  -7.084  18.287  0.00  0.00    +0.044 C 
ATOM     16  C   UNL     1     -34.417  -8.288  17.609  0.00  0.00    -0.047 A 
ATOM     17  C   UNL     1     -33.867  -9.315  18.393  0.00  0.00    +0.005 A 
ATOM     18  C   UNL     1     -33.298 -10.439  17.794  0.00  0.00    +0.023 A 
ATOM     19  C   UNL     1     -33.275 -10.565  16.397  0.00  0.00    +0.033 A 
ATOM     20  C   UNL     1     -33.795  -9.530  15.609  0.00  0.00    +0.027 A 
ATOM     21  C   UNL     1     -34.369  -8.390  16.199  0.00  0.00    -0.046 A 
ATOM     22  C   UNL     1     -34.934  -7.307  15.317  0.00  0.00    +0.044 C 
ENDBRANCH   1  19
BRANCH  12  23
ATOM     23  C   UNL     1     -28.581 -13.185  20.134  0.00  0.00    +0.036 A 
ATOM     24  C   UNL     1     -28.656 -13.957  21.303  0.00  0.00    +0.023 A 
ATOM     25  C   UNL     1     -27.489 -14.396  21.937  0.00  0.00    +0.005 A 
ATOM     26  C   UNL     1     -26.238 -14.053  21.416  0.00  0.00    +0.038 A 
ATOM     27  C   UNL     1     -26.152 -13.264  20.267  0.00  0.00    +0.125 A 
ATOM     28  F   UNL     1     -24.938 -12.915  19.774  0.00  0.00    -0.205 F 
ATOM     29  C   UNL     1     -27.318 -12.823  19.630  0.00  0.00    +0.061 A 
ENDBRANCH  12  23
TORSDOF 2
ENDMDL
MODEL 4
REMARK VINA RESULT:    -4.649      3.137      6.957
REMARK INTER + INTRA:          -4.854
REMARK INTER:                  -5.242
REMARK INTRA:                   0.389
REMARK UNBOUND:                 0.339
REMARK  Name = 
REMARK  4 active torsions:
REMARK  status: ('A' for Active; 'I' for Inactive)
REMARK    1  A    between atoms: C_1  and  C_2
REMARK    2  A    between atoms: C_5  and  N_9
REMARK    3  A    between atoms: C_7  and  C_8
REMARK    4  A    between atoms: N_20  and  C_21
REMARK                            x       y       z     vdW  Elec       q    Type
REMARK                         _______ _______ _______ _____ _____    ______ ____
ROOT
ATOM      1  N   UNL     1     -29.752 -10.735  21.568  0.00  0.00    -0.298 N 
ATOM      2  C   UNL     1     -29.391 -11.634  20.504  0.00  0.00    +0.156 A 
ATOM      3  N   UNL     1     -29.980 -11.524  19.281  0.00  0.00    -0.197 NA
ATOM      4  C   UNL     1     -29.647 -12.343  18.246  0.00  0.00    +0.223 A 
ATOM      5  N   UNL     1     -28.677 -13.283  18.415  0.00  0.00    -0.193 NA
ATOM      6  C   UNL     1     -28.052 -13.432  19.610  0.00  0.00    +0.185 A 
ATOM      7  N   UNL     1     -27.090 -14.378  19.769  0.00  0.00    -0.233 NA
ATOM      8  C   UNL     1     -26.457 -14.536  20.962  0.00  0.00    +0.133 A 
ATOM      9  C   UNL     1     -26.799 -13.715  22.040  0.00  0.00    +0.131 A 
ATOM     10  N   UNL     1     -27.760 -12.766  21.884  0.00  0.00    -0.247 NA
ATOM     11  C   UNL     1     -28.395 -12.603  20.690  0.00  0.00    +0.148 A 
ATOM     12  N   UNL     1     -30.286 -12.165  16.974  0.00  0.00    -0.283 N 
ATOM     13  H   UNL     1     -29.068 -10.581  22.342  0.00  0.00    +0.154 HD
ATOM     14  H   UNL     1     -30.786 -11.262  16.807  0.00  0.00    +0.155 HD
ENDROOT
BRANCH   1  19
ATOM     15  C   UNL     1     -34.577  -7.579  21.501  0.00  0.00    +0.044 C 
ATOM     16  C   UNL     1     -33.325  -8.418  21.528  0.00  0.00    -0.047 A 
ATOM     17  C   UNL     1     -32.086  -7.814  21.265  0.00  0.00    +0.005 A 
ATOM     18  C   UNL     1     -30.910  -8.565  21.279  0.00  0.00    +0.023 A 
ATOM     19  C   UNL     1     -30.949  -9.938  21.568  0.00  0.00    +0.033 A 
ATOM     20  C   UNL     1     -32.186 -10.553  21.802  0.00  0.00    +0.027 A 
ATOM     21  C   UNL     1     -33.377  -9.808  21.787  0.00  0.00    -0.046 A 
ATOM     22  C   UNL     1     -34.686 -10.503  22.062  0.00  0.00    +0.044 C 
ENDBRANCH   1  19
BRANCH  12  23
ATOM     23  C   UNL     1     -30.190 -13.097  15.884  0.00  0.00    +0.036 A 
ATOM     24  C   UNL     1     -29.246 -14.134  15.946  0.00  0.00    +0.023 A 
ATOM     25  C   UNL     1     -29.118 -15.038  14.887  0.00  0.00    +0.005 A 
ATOM     26  C   UNL     1     -29.921 -14.905  13.751  0.00  0.00    +0.038 A 
ATOM     27  C   UNL     1     -30.847 -13.862  13.669  0.00  0.00    +0.125 A 
ATOM     28  F   UNL     1     -31.611 -13.721  12.558  0.00  0.00    -0.205 F 
ATOM     29  C   UNL     1     -30.977 -12.955  14.727  0.00  0.00    +0.061 A 
ENDBRANCH  12  23
TORSDOF 2
ENDMDL
MODEL 5
REMARK VINA RESULT:    -4.524      3.115      6.963
REMARK INTER + INTRA:          -4.715
REMARK INTER:                  -5.079
REMARK INTRA:                   0.364
REMARK UNBOUND:                 0.339
REMARK  Name = 
REMARK  4 active torsions:
REMARK  status: ('A' for Active; 'I' for Inactive)
REMARK    1  A    between atoms: C_1  and  C_2
REMARK    2  A    between atoms: C_5  and  N_9
REMARK    3  A    between atoms: C_7  and  C_8
REMARK    4  A    between atoms: N_20  and  C_21
REMARK                            x       y       z     vdW  Elec       q    Type
REMARK                         _______ _______ _______ _____ _____    ______ ____
ROOT
ATOM      1  N   UNL     1     -29.959 -10.756  21.565  0.00  0.00    -0.298 N 
ATOM      2  C   UNL     1     -29.559 -11.641  20.502  0.00  0.00    +0.156 A 
ATOM      3  N   UNL     1     -30.136 -11.541  19.273  0.00  0.00    -0.197 NA
ATOM      4  C   UNL     1     -29.768 -12.346  18.239  0.00  0.00    +0.223 A 
ATOM      5  N   UNL     1     -28.773 -13.259  18.416  0.00  0.00    -0.193 NA
ATOM      6  C   UNL     1     -28.159 -13.396  19.617  0.00  0.00    +0.185 A 
ATOM      7  N   UNL     1     -27.173 -14.315  19.785  0.00  0.00    -0.233 NA
ATOM      8  C   UNL     1     -26.550 -14.460  20.985  0.00  0.00    +0.133 A 
ATOM      9  C   UNL     1     -26.928 -13.653  22.062  0.00  0.00    +0.131 A 
ATOM     10  N   UNL     1     -27.914 -12.732  21.897  0.00  0.00    -0.247 NA
ATOM     11  C   UNL     1     -28.538 -12.582  20.697  0.00  0.00    +0.148 A 
ATOM     12  N   UNL     1     -30.395 -12.181  16.960  0.00  0.00    -0.283 N 
ATOM     13  H   UNL     1     -29.289 -10.587  22.349  0.00  0.00    +0.154 HD
ATOM     14  H   UNL     1     -30.919 -11.292  16.790  0.00  0.00    +0.155 HD
ENDROOT
BRANCH   1  19
ATOM     15  C   UNL     1     -34.821  -7.657  21.585  0.00  0.00    +0.044 C 
ATOM     16  C   UNL     1     -33.541  -8.453  21.569  0.00  0.00    -0.047 A 
ATOM     17  C   UNL     1     -33.572  -9.813  21.919  0.00  0.00    +0.005 A 
ATOM     18  C   UNL     1     -32.403 -10.575  21.917  0.00  0.00    +0.023 A 
ATOM     19  C   UNL     1     -31.178  -9.994  21.554  0.00  0.00    +0.033 A 
ATOM     20  C   UNL     1     -31.135  -8.631  21.233  0.00  0.00    +0.027 A 
ATOM     21  C   UNL     1     -32.305  -7.851  21.235  0.00  0.00    -0.046 A 
ATOM     22  C   UNL     1     -32.220  -6.393  20.866  0.00  0.00    +0.044 C 
ENDBRANCH   1  19
BRANCH  12  23
ATOM     23  C   UNL     1     -30.259 -13.106  15.867  0.00  0.00    +0.036 A 
ATOM     24  C   UNL     1     -29.240 -14.069  15.904  0.00  0.00    +0.023 A 
ATOM     25  C   UNL     1     -29.073 -14.964  14.842  0.00  0.00    +0.005 A 
ATOM     26  C   UNL     1     -29.914 -14.892  13.727  0.00  0.00    +0.038 A 
ATOM     27  C   UNL     1     -30.916 -13.921  13.670  0.00  0.00    +0.125 A 
ATOM     28  F   UNL     1     -31.718 -13.838  12.579  0.00  0.00    -0.205 F 
ATOM     29  C   UNL     1     -31.085 -13.024  14.731  0.00  0.00    +0.061 A 
ENDBRANCH  12  23
TORSDOF 2
ENDMDL
MODEL 6
REMARK VINA RESULT:    -4.445      2.421      5.497
REMARK INTER + INTRA:          -4.626
REMARK INTER:                  -5.015
REMARK INTRA:                   0.389
REMARK UNBOUND:                 0.339
REMARK  Name = 
REMARK  4 active torsions:
REMARK  status: ('A' for Active; 'I' for Inactive)
REMARK    1  A    between atoms: C_1  and  C_2
REMARK    2  A    between atoms: C_5  and  N_9
REMARK    3  A    between atoms: C_7  and  C_8
REMARK    4  A    between atoms: N_20  and  C_21
REMARK                            x       y       z     vdW  Elec       q    Type
REMARK                         _______ _______ _______ _____ _____    ______ ____
ROOT
ATOM      1  N   UNL     1     -29.960 -13.828  17.519  0.00  0.00    -0.298 N 
ATOM      2  C   UNL     1     -30.024 -12.854  18.576  0.00  0.00    +0.156 A 
ATOM      3  N   UNL     1     -30.869 -11.791  18.481  0.00  0.00    -0.197 NA
ATOM      4  C   UNL     1     -30.972 -10.863  19.470  0.00  0.00    +0.223 A 
ATOM      5  N   UNL     1     -30.238 -11.006  20.608  0.00  0.00    -0.193 NA
ATOM      6  C   UNL     1     -29.386 -12.050  20.760  0.00  0.00    +0.185 A 
ATOM      7  N   UNL     1     -28.652 -12.179  21.897  0.00  0.00    -0.233 NA
ATOM      8  C   UNL     1     -27.795 -13.222  22.060  0.00  0.00    +0.133 A 
ATOM      9  C   UNL     1     -27.665 -14.175  21.045  0.00  0.00    +0.131 A 
ATOM     10  N   UNL     1     -28.398 -14.049  19.907  0.00  0.00    -0.247 NA
ATOM     11  C   UNL     1     -29.259 -13.008  19.741  0.00  0.00    +0.148 A 
ATOM     12  N   UNL     1     -31.895  -9.775  19.323  0.00  0.00    -0.283 N 
ATOM     13  H   UNL     1     -29.616 -14.788  17.747  0.00  0.00    +0.154 HD
ATOM     14  H   UNL     1     -32.639  -9.868  18.593  0.00  0.00    +0.155 HD
ENDROOT
BRANCH   1  19
ATOM     15  C   UNL     1     -32.021 -12.941  12.207  0.00  0.00    +0.044 C 
ATOM     16  C   UNL     1     -31.491 -13.156  13.602  0.00  0.00    -0.047 A 
ATOM     17  C   UNL     1     -30.420 -14.042  13.802  0.00  0.00    +0.005 A 
ATOM     18  C   UNL     1     -29.911 -14.265  15.082  0.00  0.00    +0.023 A 
ATOM     19  C   UNL     1     -30.456 -13.597  16.189  0.00  0.00    +0.033 A 
ATOM     20  C   UNL     1     -31.545 -12.736  16.000  0.00  0.00    +0.027 A 
ATOM     21  C   UNL     1     -32.070 -12.505  14.717  0.00  0.00    -0.046 A 
ATOM     22  C   UNL     1     -33.229 -11.557  14.553  0.00  0.00    +0.044 C 
ENDBRANCH   1  19
BRANCH  12  23
ATOM     23  C   UNL     1     -31.931  -8.623  20.183  0.00  0.00    +0.036 A 
ATOM     24  C   UNL     1     -33.132  -8.279  20.823  0.00  0.00    +0.023 A 
ATOM     25  C   UNL     1     -33.197  -7.149  21.644  0.00  0.00    +0.005 A 
ATOM     26  C   UNL     1     -32.068  -6.345  21.820  0.00  0.00    +0.038 A 
ATOM     27  C   UNL     1     -30.874  -6.665  21.168  0.00  0.00    +0.125 A 
ATOM     28  F   UNL     1     -29.784  -5.873  21.323  0.00  0.00    -0.205 F 
ATOM     29  C   UNL     1     -30.806  -7.795  20.345  0.00  0.00    +0.061 A 
ENDBRANCH  12  23
TORSDOF 2
ENDMDL
MODEL 7
REMARK VINA RESULT:    -4.433      2.396      7.411
REMARK INTER + INTRA:          -4.613
REMARK INTER:                  -4.780
REMARK INTRA:                   0.168
REMARK UNBOUND:                 0.339
REMARK  Name = 
REMARK  4 active torsions:
REMARK  status: ('A' for Active; 'I' for Inactive)
REMARK    1  A    between atoms: C_1  and  C_2
REMARK    2  A    between atoms: C_5  and  N_9
REMARK    3  A    between atoms: C_7  and  C_8
REMARK    4  A    between atoms: N_20  and  C_21
REMARK                            x       y       z     vdW  Elec       q    Type
REMARK                         _______ _______ _______ _____ _____    ______ ____
ROOT
ATOM      1  N   UNL     1     -30.186  -8.906  20.364  0.00  0.00    -0.298 N 
ATOM      2  C   UNL     1     -30.320  -9.746  19.203  0.00  0.00    +0.156 A 
ATOM      3  N   UNL     1     -31.187  -9.411  18.208  0.00  0.00    -0.197 NA
ATOM      4  C   UNL     1     -31.323 -10.169  17.087  0.00  0.00    +0.223 A 
ATOM      5  N   UNL     1     -30.554 -11.281  16.927  0.00  0.00    -0.193 NA
ATOM      6  C   UNL     1     -29.667 -11.658  17.882  0.00  0.00    +0.185 A 
ATOM      7  N   UNL     1     -28.910 -12.773  17.715  0.00  0.00    -0.233 NA
ATOM      8  C   UNL     1     -28.019 -13.160  18.666  0.00  0.00    +0.133 A 
ATOM      9  C   UNL     1     -27.878 -12.401  19.833  0.00  0.00    +0.131 A 
ATOM     10  N   UNL     1     -28.634 -11.285  20.002  0.00  0.00    -0.247 NA
ATOM     11  C   UNL     1     -29.527 -10.892  19.051  0.00  0.00    +0.148 A 
ATOM     12  N   UNL     1     -32.238  -9.754  16.062  0.00  0.00    -0.283 N 
ATOM     13  H   UNL     1     -29.299  -8.956  20.914  0.00  0.00    +0.154 HD
ATOM     14  H   UNL     1     -32.572  -8.764  16.087  0.00  0.00    +0.155 HD
ENDROOT
BRANCH   1  19
ATOM     15  C   UNL     1     -34.105  -4.938  21.828  0.00  0.00    +0.044 C 
ATOM     16  C   UNL     1     -33.090  -5.989  21.455  0.00  0.00    -0.047 A 
ATOM     17  C   UNL     1     -31.835  -5.592  20.970  0.00  0.00    +0.005 A 
ATOM     18  C   UNL     1     -30.877  -6.542  20.613  0.00  0.00    +0.023 A 
ATOM     19  C   UNL     1     -31.152  -7.912  20.745  0.00  0.00    +0.033 A 
ATOM     20  C   UNL     1     -32.414  -8.315  21.200  0.00  0.00    +0.027 A 
ATOM     21  C   UNL     1     -33.389  -7.368  21.559  0.00  0.00    -0.046 A 
ATOM     22  C   UNL     1     -34.728  -7.842  22.062  0.00  0.00    +0.044 C 
ENDBRANCH   1  19
BRANCH  12  23
ATOM     23  C   UNL     1     -32.634 -10.576  14.951  0.00  0.00    +0.036 A 
ATOM     24  C   UNL     1     -33.959 -10.522  14.494  0.00  0.00    +0.023 A 
ATOM     25  C   UNL     1     -34.374 -11.329  13.430  0.00  0.00    +0.005 A 
ATOM     26  C   UNL     1     -33.471 -12.208  12.824  0.00  0.00    +0.038 A 
ATOM     27  C   UNL     1     -32.156 -12.286  13.287  0.00  0.00    +0.125 A 
ATOM     28  F   UNL     1     -31.286 -13.153  12.712  0.00  0.00    -0.205 F 
ATOM     29  C   UNL     1     -31.737 -11.480  14.352  0.00  0.00    +0.061 A 
ENDBRANCH  12  23
TORSDOF 2
ENDMDL
MODEL 8
REMARK VINA RESULT:    -4.254      2.380      5.203
REMARK INTER + INTRA:          -4.413
REMARK INTER:                  -4.615
REMARK INTRA:                   0.202
REMARK UNBOUND:                 0.339
REMARK  Name = 
REMARK  4 active torsions:
REMARK  status: ('A' for Active; 'I' for Inactive)
REMARK    1  A    between atoms: C_1  and  C_2
REMARK    2  A    between atoms: C_5  and  N_9
REMARK    3  A    between atoms: C_7  and  C_8
REMARK    4  A    between atoms: N_20  and  C_21
REMARK                            x       y       z     vdW  Elec       q    Type
REMARK                         _______ _______ _______ _____ _____    ______ ____
ROOT
ATOM      1  N   UNL     1     -33.144 -11.005  17.177  0.00  0.00    -0.298 N 
ATOM      2  C   UNL     1     -31.983 -11.818  17.429  0.00  0.00    +0.156 A 
ATOM      3  N   UNL     1     -31.398 -11.819  18.659  0.00  0.00    -0.197 NA
ATOM      4  C   UNL     1     -30.313 -12.591  18.939  0.00  0.00    +0.223 A 
ATOM      5  N   UNL     1     -29.807 -13.415  17.981  0.00  0.00    -0.193 NA
ATOM      6  C   UNL     1     -30.354 -13.460  16.740  0.00  0.00    +0.185 A 
ATOM      7  N   UNL     1     -29.836 -14.281  15.790  0.00  0.00    -0.233 NA
ATOM      8  C   UNL     1     -30.377 -14.334  14.543  0.00  0.00    +0.133 A 
ATOM      9  C   UNL     1     -31.482 -13.534  14.234  0.00  0.00    +0.131 A 
ATOM     10  N   UNL     1     -32.003 -12.713  15.184  0.00  0.00    -0.247 NA
ATOM     11  C   UNL     1     -31.466 -12.658  16.433  0.00  0.00    +0.148 A 
ATOM     12  N   UNL     1     -29.753 -12.567  20.259  0.00  0.00    -0.283 N 
ATOM     13  H   UNL     1     -33.782 -11.278  16.397  0.00  0.00    +0.154 HD
ATOM     14  H   UNL     1     -30.341 -12.165  21.025  0.00  0.00    +0.155 HD
ENDROOT
BRANCH   1  19
ATOM     15  C   UNL     1     -34.826  -6.643  20.552  0.00  0.00    +0.044 C 
ATOM     16  C   UNL     1     -34.378  -7.792  19.685  0.00  0.00    -0.047 A 
ATOM     17  C   UNL     1     -34.360  -7.636  18.290  0.00  0.00    +0.005 A 
ATOM     18  C   UNL     1     -33.954  -8.683  17.462  0.00  0.00    +0.023 A 
ATOM     19  C   UNL     1     -33.546  -9.907  18.014  0.00  0.00    +0.033 A 
ATOM     20  C   UNL     1     -33.591 -10.079  19.404  0.00  0.00    +0.027 A 
ATOM     21  C   UNL     1     -34.001  -9.034  20.249  0.00  0.00    -0.046 A 
ATOM     22  C   UNL     1     -34.017  -9.253  21.739  0.00  0.00    +0.044 C 
ENDBRANCH   1  19
BRANCH  12  23
ATOM     23  C   UNL     1     -28.489 -13.154  20.612  0.00  0.00    +0.036 A 
ATOM     24  C   UNL     1     -28.427 -14.068  21.674  0.00  0.00    +0.023 A 
ATOM     25  C   UNL     1     -27.205 -14.634  22.051  0.00  0.00    +0.005 A 
ATOM     26  C   UNL     1     -26.032 -14.279  21.379  0.00  0.00    +0.038 A 
ATOM     27  C   UNL     1     -26.079 -13.351  20.335  0.00  0.00    +0.125 A 
ATOM     28  F   UNL     1     -24.938 -12.991  19.697  0.00  0.00    -0.205 F 
ATOM     29  C   UNL     1     -27.300 -12.783  19.956  0.00  0.00    +0.061 A 
ENDBRANCH  12  23
TORSDOF 2
ENDMDL
