=
 OpenBabel05162522083D

 29 32  0  0  0  0  0  0  0  0999 V2000
  -32.3770   -9.1730   16.5340 N   0  0  0  0  0  0  0  0  0  0  0  0
  -31.5210   -9.5490   17.6280 C   0  0  0  0  0  0  0  0  0  0  0  0
  -30.7640  -10.6790   17.5520 N   0  0  0  0  0  0  0  0  0  0  0  0
  -29.9280  -11.0530   18.5580 C   0  0  0  0  0  0  0  0  0  0  0  0
  -29.8090  -10.2680   19.6650 N   0  0  0  0  0  0  0  0  0  0  0  0
  -30.5330   -9.1270   19.7900 C   0  0  0  0  0  0  0  0  0  0  0  0
  -30.4120   -8.3550   20.9010 N   0  0  0  0  0  0  0  0  0  0  0  0
  -31.1330   -7.2100   21.0370 C   0  0  0  0  0  3  0  0  0  0  0  0
  -32.0110   -6.8200   20.0200 C   0  0  0  0  0  3  0  0  0  0  0  0
  -32.1320   -7.5900   18.9070 N   0  0  0  0  0  0  0  0  0  0  0  0
  -31.4110   -8.7360   18.7660 C   0  0  0  0  0  0  0  0  0  0  0  0
  -29.1390  -12.2420   18.4130 N   0  0  0  0  0  0  0  0  0  0  0  0
  -32.6490   -8.1690   16.4390 H   0  0  0  0  0  0  0  0  0  0  0  0
  -29.0340  -12.6370   17.4500 H   0  0  0  0  0  0  0  0  0  0  0  0
  -33.9470  -12.7640   12.3050 C   0  0  0  0  0  1  0  0  0  0  0  0
  -33.5230  -11.8380   13.4160 C   0  0  0  0  0  0  0  0  0  0  0  0
  -34.3770  -10.7950   13.8070 C   0  0  0  0  0  3  0  0  0  0  0  0
  -34.0100   -9.9200   14.8300 C   0  0  0  0  0  3  0  0  0  0  0  0
  -32.7830  -10.0760   15.4920 C   0  0  0  0  0  0  0  0  0  0  0  0
  -31.9130  -11.0970   15.0860 C   0  0  0  0  0  3  0  0  0  0  0  0
  -32.2690  -11.9830   14.0550 C   0  0  0  0  0  0  0  0  0  0  0  0
  -31.3130  -13.0790   13.6610 C   0  0  0  0  0  1  0  0  0  0  0  0
  -28.3990  -12.8570   19.4810 C   0  0  0  0  0  0  0  0  0  0  0  0
  -29.0880  -13.3530   20.5990 C   0  0  0  0  0  3  0  0  0  0  0  0
  -28.3890  -13.9340   21.6610 C   0  0  0  0  0  3  0  0  0  0  0  0
  -26.9940  -14.0110   21.6220 C   0  0  0  0  0  3  0  0  0  0  0  0
  -26.2960  -13.4990   20.5250 C   0  0  0  0  0  0  0  0  0  0  0  0
  -24.9420  -13.5550   20.4970 F   0  0  0  0  0  0  0  0  0  0  0  0
  -26.9940  -12.9160   19.4600 C   0  0  0  0  0  3  0  0  0  0  0  0
  1  2  1  0  0  0  0
  2 11  2  0  0  0  0
  3  2  1  0  0  0  0
  3  4  2  0  0  0  0
  4  5  1  0  0  0  0
  5  6  2  0  0  0  0
  6  7  1  0  0  0  0
  7  8  2  0  0  0  0
  9  8  1  0  0  0  0
 10  9  2  0  0  0  0
 11 10  1  0  0  0  0
 11  6  1  0  0  0  0
 12  4  1  0  0  0  0
 12 23  1  0  0  0  0
 13  1  1  0  0  0  0
 14 12  1  0  0  0  0
 15 16  1  0  0  0  0
 16 17  2  0  0  0  0
 16 21  1  0  0  0  0
 17 18  1  0  0  0  0
 18 19  2  0  0  0  0
 19  1  1  0  0  0  0
 20 19  1  0  0  0  0
 21 20  2  0  0  0  0
 22 21  1  0  0  0  0
 23 24  1  0  0  0  0
 24 25  2  0  0  0  0
 26 25  1  0  0  0  0
 27 26  2  0  0  0  0
 28 27  1  0  0  0  0
 29 23  2  0  0  0  0
 29 27  1  0  0  0  0
M  END
>  <MODEL>
1

>  <REMARK>
 VINA RESULT:    -6.563      0.000      0.000
 INTER + INTRA:          -6.992
 INTER:                  -7.331
 INTRA:                   0.339
 UNBOUND:                 0.339
  Name = 
  4 active torsions:
  status: ('A' for Active; 'I' for Inactive)
    1  A    between atoms: C_1  and  C_2
    2  A    between atoms: C_5  and  N_9
    3  A    between atoms: C_7  and  C_8
    4  A    between atoms: N_20  and  C_21
                            x       y       z     vdW  Elec       q    Type
                         _______ _______ _______ _____ _____    ______ ____

>  <TORSDO>
F 2

$$$$