dynamics/66/input/ligand66_pdb.pdb
 OpenBabel05162520293D

 41 43  0  0  0  0  0  0  0  0999 V2000
  -32.2790  -12.7340   16.6760 N   0  0  0  0  0  0  0  0  0  0  0  0
  -32.2650  -11.6500   15.7290 C   0  0  0  0  0  0  0  0  0  0  0  0
  -31.7020  -10.5580   16.0140 O   0  0  0  0  0  0  0  0  0  0  0  0
  -32.7320  -13.6330   16.3980 H   0  0  0  0  0  0  0  0  0  0  0  0
  -29.6400  -13.0660   19.3470 C   0  0  0  0  0  0  0  0  0  0  0  0
  -30.2840  -13.1290   18.0960 C   0  0  0  0  0  0  0  0  0  0  0  0
  -31.6150  -12.6990   17.9510 C   0  0  0  0  0  0  0  0  0  0  0  0
  -32.2850  -12.1580   19.0540 C   0  0  0  0  0  0  0  0  0  0  0  0
  -31.6530  -12.0830   20.2970 C   0  0  0  0  0  0  0  0  0  0  0  0
  -30.3400  -12.5360   20.4490 C   0  0  0  0  0  0  0  0  0  0  0  0
  -29.7640  -12.4660   21.6750 F   0  0  0  0  0  0  0  0  0  0  0  0
  -27.9040  -14.6410   20.3230 N   0  0  0  0  0  0  0  0  0  0  0  0
  -28.2370  -13.5260   19.4920 C   0  0  0  0  0  0  0  0  0  0  0  0
  -27.3130  -12.9260   18.8790 O   0  0  0  0  0  0  0  0  0  0  0  0
  -26.9170  -14.9820   20.3680 H   0  0  0  0  0  0  0  0  0  0  0  0
  -28.6070  -15.0820   20.9540 H   0  0  0  0  0  0  0  0  0  0  0  0
  -32.9140  -11.7990   14.4090 C   0  0  0  0  0  0  0  0  0  0  0  0
  -34.0120  -10.9810   14.0910 C   0  0  0  0  0  0  0  0  0  0  0  0
  -34.6670  -11.1210   12.8670 C   0  0  0  0  0  0  0  0  0  0  0  0
  -34.2300  -12.0710   11.9460 C   0  0  0  0  0  0  0  0  0  0  0  0
  -33.1270  -12.8760   12.2370 C   0  0  0  0  0  0  0  0  0  0  0  0
  -32.4480  -12.7410   13.4660 C   0  0  0  0  0  0  0  0  0  0  0  0
  -31.2960  -13.4900   13.7650 O   0  0  0  0  0  0  0  0  0  0  0  0
  -30.3530  -13.9850   12.8160 C   0  0  0  0  0  0  0  0  0  0  0  0
  -29.4720  -15.0620   13.4620 C   0  0  0  0  0  0  0  0  0  0  0  0
  -27.9930  -14.7260   13.5800 C   0  0  0  0  0  0  0  0  0  0  0  0
  -28.8840  -14.6820   14.8120 C   0  0  0  0  0  0  0  0  0  0  0  0
  -29.7736  -13.4947   17.2770 H   0  0  0  0  0  0  0  0  0  0  0  0
  -33.2517  -11.8125   18.9483 H   0  0  0  0  0  0  0  0  0  0  0  0
  -32.1581  -11.6911   21.1071 H   0  0  0  0  0  0  0  0  0  0  0  0
  -34.3359  -10.2721   14.7674 H   0  0  0  0  0  0  0  0  0  0  0  0
  -35.4759  -10.5204   12.6436 H   0  0  0  0  0  0  0  0  0  0  0  0
  -34.7232  -12.1799   11.0460 H   0  0  0  0  0  0  0  0  0  0  0  0
  -32.8063  -13.5745   11.5483 H   0  0  0  0  0  0  0  0  0  0  0  0
  -29.7359  -13.1794   12.4768 H   0  0  0  0  0  0  0  0  0  0  0  0
  -30.8798  -14.4128   11.9888 H   0  0  0  0  0  0  0  0  0  0  0  0
  -30.0271  -15.8918   13.0770 H   0  0  0  0  0  0  0  0  0  0  0  0
  -27.6156  -13.8172   13.1599 H   0  0  0  0  0  0  0  0  0  0  0  0
  -27.0812  -15.2234   13.3230 H   0  0  0  0  0  0  0  0  0  0  0  0
  -28.7768  -15.4229   15.5765 H   0  0  0  0  0  0  0  0  0  0  0  0
  -29.1105  -13.9471   15.5560 H   0  0  0  0  0  0  0  0  0  0  0  0
  1  2  1  0  0  0  0
  1  4  1  0  0  0  0
  1  7  1  0  0  0  0
  2 17  1  0  0  0  0
  2  3  2  0  0  0  0
  5  6  2  0  0  0  0
  5 13  1  0  0  0  0
  5 10  1  0  0  0  0
  6  7  1  0  0  0  0
  6 28  1  0  0  0  0
  7  8  2  0  0  0  0
  8  9  1  0  0  0  0
  8 29  1  0  0  0  0
  9 10  2  0  0  0  0
  9 30  1  0  0  0  0
 10 11  1  0  0  0  0
 12 13  1  0  0  0  0
 12 15  1  0  0  0  0
 12 16  1  0  0  0  0
 13 14  2  0  0  0  0
 17 22  2  0  0  0  0
 17 18  1  0  0  0  0
 18 19  2  0  0  0  0
 18 31  1  0  0  0  0
 19 20  1  0  0  0  0
 19 32  1  0  0  0  0
 20 21  2  0  0  0  0
 20 33  1  0  0  0  0
 21 22  1  0  0  0  0
 21 34  1  0  0  0  0
 22 23  1  0  0  0  0
 23 24  1  0  0  0  0
 24 25  1  0  0  0  0
 24 35  1  0  0  0  0
 24 36  1  0  0  0  0
 25 26  1  0  0  0  0
 25 27  1  0  0  0  0
 25 37  1  0  0  0  0
 26 27  1  0  0  0  0
 26 38  1  0  0  0  0
 26 39  1  0  0  0  0
 27 40  1  0  0  0  0
 27 41  1  0  0  0  0
M  END
$$$$
