=
 OpenBabel05162520223D

 27 29  0  0  0  0  0  0  0  0999 V2000
  -32.2790  -12.7340   16.6760 N   0  0  0  0  0  0  0  0  0  0  0  0
  -32.2650  -11.6500   15.7290 C   0  0  0  0  0  0  0  0  0  0  0  0
  -31.7020  -10.5580   16.0140 O   0  0  0  0  0  0  0  0  0  0  0  0
  -32.7320  -13.6330   16.3980 H   0  0  0  0  0  0  0  0  0  0  0  0
  -29.6400  -13.0660   19.3470 C   0  0  0  0  0  0  0  0  0  0  0  0
  -30.2840  -13.1290   18.0960 C   0  0  0  0  0  3  0  0  0  0  0  0
  -31.6150  -12.6990   17.9510 C   0  0  0  0  0  0  0  0  0  0  0  0
  -32.2850  -12.1580   19.0540 C   0  0  0  0  0  3  0  0  0  0  0  0
  -31.6530  -12.0830   20.2970 C   0  0  0  0  0  3  0  0  0  0  0  0
  -30.3400  -12.5360   20.4490 C   0  0  0  0  0  0  0  0  0  0  0  0
  -29.7640  -12.4660   21.6750 F   0  0  0  0  0  0  0  0  0  0  0  0
  -27.9040  -14.6410   20.3230 N   0  0  0  0  0  0  0  0  0  0  0  0
  -28.2370  -13.5260   19.4920 C   0  0  0  0  0  0  0  0  0  0  0  0
  -27.3130  -12.9260   18.8790 O   0  0  0  0  0  0  0  0  0  0  0  0
  -26.9170  -14.9820   20.3680 H   0  0  0  0  0  0  0  0  0  0  0  0
  -28.6070  -15.0820   20.9540 H   0  0  0  0  0  0  0  0  0  0  0  0
  -32.9140  -11.7990   14.4090 C   0  0  0  0  0  0  0  0  0  0  0  0
  -34.0120  -10.9810   14.0910 C   0  0  0  0  0  3  0  0  0  0  0  0
  -34.6670  -11.1210   12.8670 C   0  0  0  0  0  3  0  0  0  0  0  0
  -34.2300  -12.0710   11.9460 C   0  0  0  0  0  3  0  0  0  0  0  0
  -33.1270  -12.8760   12.2370 C   0  0  0  0  0  3  0  0  0  0  0  0
  -32.4480  -12.7410   13.4660 C   0  0  0  0  0  0  0  0  0  0  0  0
  -31.2960  -13.4900   13.7650 O   0  0  0  0  0  0  0  0  0  0  0  0
  -30.3530  -13.9850   12.8160 C   0  0  0  0  0  2  0  0  0  0  0  0
  -29.4720  -15.0620   13.4620 C   0  0  0  0  0  3  0  0  0  0  0  0
  -27.9930  -14.7260   13.5800 C   0  0  0  0  0  2  0  0  0  0  0  0
  -28.8840  -14.6820   14.8120 C   0  0  0  0  0  2  0  0  0  0  0  0
  1  7  1  0  0  0  0
  2  3  2  0  0  0  0
  2  1  1  0  0  0  0
  4  1  1  0  0  0  0
  5 13  1  0  0  0  0
  5 10  1  0  0  0  0
  6  5  2  0  0  0  0
  7  6  1  0  0  0  0
  7  8  2  0  0  0  0
  8  9  1  0  0  0  0
  9 10  2  0  0  0  0
 10 11  1  0  0  0  0
 12 15  1  0  0  0  0
 12 16  1  0  0  0  0
 13 12  1  0  0  0  0
 14 13  2  0  0  0  0
 17  2  1  0  0  0  0
 18 17  1  0  0  0  0
 19 18  2  0  0  0  0
 20 21  2  0  0  0  0
 20 19  1  0  0  0  0
 21 22  1  0  0  0  0
 22 23  1  0  0  0  0
 22 17  2  0  0  0  0
 24 25  1  0  0  0  0
 24 23  1  0  0  0  0
 25 26  1  0  0  0  0
 25 27  1  0  0  0  0
 26 27  1  0  0  0  0
M  END
>  <MODEL>
1

>  <REMARK>
 VINA RESULT:    -5.441      0.000      0.000
 INTER + INTRA:          -8.769
 INTER:                  -7.350
 INTRA:                  -1.419
 UNBOUND:                -1.419
  Name = 
  6 active torsions:
  status: ('A' for Active; 'I' for Inactive)
    1  A    between atoms: C_2  and  C_4
    2  A    between atoms: C_6  and  N_11
    3  A    between atoms: C_12  and  C_14
    4  A    between atoms: C_19  and  O_20
    5  A    between atoms: O_20  and  C_21
    6  A    between atoms: C_21  and  C_22
                            x       y       z     vdW  Elec       q    Type
                         _______ _______ _______ _____ _____    ______ ____

>  <TORSDO>
F 6

$$$$
