MODEL 1
REMARK VINA RESULT:    -4.809      0.000      0.000
REMARK INTER + INTRA:          -7.303
REMARK INTER:                  -6.918
REMARK INTRA:                  -0.385
REMARK UNBOUND:                -0.385
REMARK  Name = 
REMARK  10 active torsions:
REMARK  status: ('A' for Active; 'I' for Inactive)
REMARK    1  A    between atoms: C_1  and  O_2
REMARK    2  A    between atoms: O_2  and  C_3
REMARK    3  A    between atoms: C_6  and  C_7
REMARK    4  A    between atoms: C_8  and  C_9
REMARK    5  A    between atoms: C_8  and  C_14
REMARK    6  A    between atoms: C_9  and  C_10
REMARK    7  A    between atoms: C_10  and  C_11
REMARK    8  A    between atoms: C_11  and  O_13
REMARK    9  A    between atoms: C_23  and  O_25
REMARK   10  A    between atoms: O_25  and  C_26
REMARK                            x       y       z     vdW  Elec       q    Type
REMARK                         _______ _______ _______ _____ _____    ______ ____
ROOT
ATOM      1  C   UNL     1     -30.524 -11.881  17.772  0.00  0.00    +0.017 C 
ATOM      2  C   UNL     1     -31.197 -12.736  16.973  0.00  0.00    -0.014 C 
ENDROOT
BRANCH   2   3
ATOM      3  C   UNL     1     -32.123 -12.211  15.937  0.00  0.00    +0.106 A 
ATOM      4  N   UNL     1     -32.223 -12.753  14.696  0.00  0.00    -0.239 NA
ATOM      5  C   UNL     1     -33.139 -12.098  13.937  0.00  0.00    +0.079 A 
ATOM      6  C   UNL     1     -33.454 -12.430  12.619  0.00  0.00    +0.029 A 
ATOM      7  C   UNL     1     -34.424 -11.668  11.944  0.00  0.00    +0.002 A 
ATOM      8  C   UNL     1     -35.062 -10.591  12.591  0.00  0.00    +0.001 A 
ATOM      9  C   UNL     1     -34.737 -10.267  13.919  0.00  0.00    +0.017 A 
ATOM     10  C   UNL     1     -33.774 -11.038  14.563  0.00  0.00    +0.040 A 
ATOM     11  S   UNL     1     -33.184 -10.894  16.125  0.00  0.00    -0.067 S 
ENDBRANCH   2   3
BRANCH   1  15
ATOM     12  C   UNL     1     -27.660 -13.166  20.696  0.00  0.00    +0.124 A 
ATOM     13  C   UNL     1     -27.267 -12.905  19.381  0.00  0.00    +0.046 A 
ATOM     14  C   UNL     1     -28.199 -12.485  18.432  0.00  0.00    +0.015 A 
ATOM     15  C   UNL     1     -29.542 -12.305  18.789  0.00  0.00    +0.017 A 
ATOM     16  C   UNL     1     -29.962 -12.581  20.103  0.00  0.00    +0.131 A 
ATOM     17  C   UNL     1     -29.013 -13.006  21.055  0.00  0.00    +0.091 A 
BRANCH  12  19
ATOM     18  C   UNL     1     -25.500 -14.294  21.259  0.00  0.00    +0.277 C 
ATOM     19  O   UNL     1     -26.682 -13.584  21.612  0.00  0.00    -0.495 OA
ENDBRANCH  12  19
BRANCH  16  20
ATOM     20  O   UNL     1     -31.319 -12.413  20.427  0.00  0.00    -0.494 OA
ATOM     21  C   UNL     1     -31.820 -11.423  21.318  0.00  0.00    +0.277 C 
ENDBRANCH  16  20
ENDBRANCH   1  15
BRANCH   2  22
ATOM     22  C   UNL     1     -30.942 -14.231  17.017  0.00  0.00    +0.049 C 
BRANCH  22  23
ATOM     23  C   UNL     1     -30.690 -14.778  15.609  0.00  0.00    +0.125 C 
BRANCH  23  24
ATOM     24  C   UNL     1     -29.283 -14.501  15.185  0.00  0.00    +0.305 C 
ATOM     25  O   UNL     1     -29.045 -14.072  14.024  0.00  0.00    -0.251 OA
BRANCH  24  26
ATOM     26  O   UNL     1     -28.240 -14.675  16.090  0.00  0.00    -0.481 OA
ATOM     27  H   UNL     1     -27.301 -14.876  15.767  0.00  0.00    +0.295 HD
ENDBRANCH  24  26
ENDBRANCH  23  24
ENDBRANCH  22  23
ENDBRANCH   2  22
TORSDOF 8
ENDMDL
MODEL 2
REMARK VINA RESULT:    -4.791      2.011      3.059
REMARK INTER + INTRA:          -7.276
REMARK INTER:                  -6.342
REMARK INTRA:                  -0.934
REMARK UNBOUND:                -0.385
REMARK  Name = 
REMARK  10 active torsions:
REMARK  status: ('A' for Active; 'I' for Inactive)
REMARK    1  A    between atoms: C_1  and  O_2
REMARK    2  A    between atoms: O_2  and  C_3
REMARK    3  A    between atoms: C_6  and  C_7
REMARK    4  A    between atoms: C_8  and  C_9
REMARK    5  A    between atoms: C_8  and  C_14
REMARK    6  A    between atoms: C_9  and  C_10
REMARK    7  A    between atoms: C_10  and  C_11
REMARK    8  A    between atoms: C_11  and  O_13
REMARK    9  A    between atoms: C_23  and  O_25
REMARK   10  A    between atoms: O_25  and  C_26
REMARK                            x       y       z     vdW  Elec       q    Type
REMARK                         _______ _______ _______ _____ _____    ______ ____
ROOT
ATOM      1  C   UNL     1     -30.632 -12.541  17.480  0.00  0.00    +0.017 C 
ATOM      2  C   UNL     1     -30.867 -11.339  16.914  0.00  0.00    -0.014 C 
ENDROOT
BRANCH   2   3
ATOM      3  C   UNL     1     -31.869 -11.214  15.823  0.00  0.00    +0.106 A 
ATOM      4  N   UNL     1     -31.916 -12.066  14.766  0.00  0.00    -0.239 NA
ATOM      5  C   UNL     1     -32.921 -11.742  13.911  0.00  0.00    +0.079 A 
ATOM      6  C   UNL     1     -33.211 -12.438  12.737  0.00  0.00    +0.029 A 
ATOM      7  C   UNL     1     -34.281 -11.999  11.938  0.00  0.00    +0.002 A 
ATOM      8  C   UNL     1     -35.042 -10.876  12.320  0.00  0.00    +0.001 A 
ATOM      9  C   UNL     1     -34.742 -10.184  13.505  0.00  0.00    +0.017 A 
ATOM     10  C   UNL     1     -33.677 -10.642  14.277  0.00  0.00    +0.040 A 
ATOM     11  S   UNL     1     -33.087 -10.031  15.721  0.00  0.00    -0.067 S 
ENDBRANCH   2   3
BRANCH   1  15
ATOM     12  C   UNL     1     -27.904 -13.211  20.721  0.00  0.00    +0.124 A 
ATOM     13  C   UNL     1     -27.432 -13.050  19.416  0.00  0.00    +0.046 A 
ATOM     14  C   UNL     1     -28.321 -12.830  18.364  0.00  0.00    +0.015 A 
ATOM     15  C   UNL     1     -29.700 -12.753  18.604  0.00  0.00    +0.017 A 
ATOM     16  C   UNL     1     -30.195 -12.931  19.908  0.00  0.00    +0.131 A 
ATOM     17  C   UNL     1     -29.290 -13.155  20.965  0.00  0.00    +0.091 A 
BRANCH  12  19
ATOM     18  C   UNL     1     -25.889 -14.354  21.666  0.00  0.00    +0.277 C 
ATOM     19  O   UNL     1     -26.968 -13.428  21.744  0.00  0.00    -0.495 OA
ENDBRANCH  12  19
BRANCH  16  20
ATOM     20  O   UNL     1     -31.584 -12.871  20.116  0.00  0.00    -0.494 OA
ATOM     21  C   UNL     1     -32.252 -11.826  20.815  0.00  0.00    +0.277 C 
ENDBRANCH  16  20
ENDBRANCH   1  15
BRANCH   2  22
ATOM     22  C   UNL     1     -30.224 -10.071  17.446  0.00  0.00    +0.049 C 
BRANCH  22  23
ATOM     23  C   UNL     1     -31.225  -9.266  18.278  0.00  0.00    +0.125 C 
BRANCH  23  24
ATOM     24  C   UNL     1     -30.585  -8.782  19.541  0.00  0.00    +0.305 C 
ATOM     25  O   UNL     1     -31.083  -7.810  20.170  0.00  0.00    -0.251 OA
BRANCH  24  26
ATOM     26  O   UNL     1     -29.465  -9.436  20.043  0.00  0.00    -0.481 OA
ATOM     27  H   UNL     1     -29.408 -10.448  20.035  0.00  0.00    +0.295 HD
ENDBRANCH  24  26
ENDBRANCH  23  24
ENDBRANCH  22  23
ENDBRANCH   2  22
TORSDOF 8
ENDMDL
MODEL 3
REMARK VINA RESULT:    -4.644      4.007      7.923
REMARK INTER + INTRA:          -7.066
REMARK INTER:                  -5.791
REMARK INTRA:                  -1.275
REMARK UNBOUND:                -0.385
REMARK  Name = 
REMARK  10 active torsions:
REMARK  status: ('A' for Active; 'I' for Inactive)
REMARK    1  A    between atoms: C_1  and  O_2
REMARK    2  A    between atoms: O_2  and  C_3
REMARK    3  A    between atoms: C_6  and  C_7
REMARK    4  A    between atoms: C_8  and  C_9
REMARK    5  A    between atoms: C_8  and  C_14
REMARK    6  A    between atoms: C_9  and  C_10
REMARK    7  A    between atoms: C_10  and  C_11
REMARK    8  A    between atoms: C_11  and  O_13
REMARK    9  A    between atoms: C_23  and  O_25
REMARK   10  A    between atoms: O_25  and  C_26
REMARK                            x       y       z     vdW  Elec       q    Type
REMARK                         _______ _______ _______ _____ _____    ______ ____
ROOT
ATOM      1  C   UNL     1     -30.919 -10.128  20.231  0.00  0.00    +0.017 C 
ATOM      2  C   UNL     1     -29.900 -10.515  19.435  0.00  0.00    -0.014 C 
ENDROOT
BRANCH   2   3
ATOM      3  C   UNL     1     -28.971 -11.585  19.882  0.00  0.00    +0.106 A 
ATOM      4  N   UNL     1     -27.669 -11.636  19.501  0.00  0.00    -0.239 NA
ATOM      5  C   UNL     1     -27.032 -12.705  20.046  0.00  0.00    +0.079 A 
ATOM      6  C   UNL     1     -25.689 -13.015  19.831  0.00  0.00    +0.029 A 
ATOM      7  C   UNL     1     -25.151 -14.154  20.456  0.00  0.00    +0.002 A 
ATOM      8  C   UNL     1     -25.957 -14.962  21.283  0.00  0.00    +0.001 A 
ATOM      9  C   UNL     1     -27.308 -14.639  21.492  0.00  0.00    +0.017 A 
ATOM     10  C   UNL     1     -27.814 -13.506  20.860  0.00  0.00    +0.040 A 
ATOM     11  S   UNL     1     -29.365 -12.876  20.918  0.00  0.00    -0.067 S 
ENDBRANCH   2   3
BRANCH   1  15
ATOM     12  C   UNL     1     -33.837  -7.210  19.064  0.00  0.00    +0.124 A 
ATOM     13  C   UNL     1     -34.119  -8.574  18.971  0.00  0.00    +0.046 A 
ATOM     14  C   UNL     1     -33.170  -9.522  19.353  0.00  0.00    +0.015 A 
ATOM     15  C   UNL     1     -31.923  -9.117  19.850  0.00  0.00    +0.017 A 
ATOM     16  C   UNL     1     -31.613  -7.748  19.934  0.00  0.00    +0.131 A 
ATOM     17  C   UNL     1     -32.579  -6.797  19.544  0.00  0.00    +0.091 A 
BRANCH  12  19
ATOM     18  C   UNL     1     -34.572  -4.960  18.254  0.00  0.00    +0.277 C 
ATOM     19  O   UNL     1     -34.828  -6.298  18.669  0.00  0.00    -0.495 OA
ENDBRANCH  12  19
BRANCH  16  20
ATOM     20  O   UNL     1     -30.349  -7.371  20.416  0.00  0.00    -0.494 OA
ATOM     21  C   UNL     1     -30.128  -6.417  21.449  0.00  0.00    +0.277 C 
ENDBRANCH  16  20
ENDBRANCH   1  15
BRANCH   2  22
ATOM     22  C   UNL     1     -29.745  -9.974  18.026  0.00  0.00    +0.049 C 
BRANCH  22  23
ATOM     23  C   UNL     1     -30.309 -10.962  17.001  0.00  0.00    +0.125 C 
BRANCH  23  24
ATOM     24  C   UNL     1     -31.180 -10.251  16.014  0.00  0.00    +0.305 C 
ATOM     25  O   UNL     1     -31.449 -10.789  14.906  0.00  0.00    -0.251 OA
BRANCH  24  26
ATOM     26  O   UNL     1     -31.728  -9.014  16.339  0.00  0.00    -0.481 OA
ATOM     27  H   UNL     1     -32.245  -8.887  17.201  0.00  0.00    +0.295 HD
ENDBRANCH  24  26
ENDBRANCH  23  24
ENDBRANCH  22  23
ENDBRANCH   2  22
TORSDOF 8
ENDMDL
MODEL 4
REMARK VINA RESULT:    -4.565      3.001      7.451
REMARK INTER + INTRA:          -6.951
REMARK INTER:                  -5.886
REMARK INTRA:                  -1.065
REMARK UNBOUND:                -0.385
REMARK  Name = 
REMARK  10 active torsions:
REMARK  status: ('A' for Active; 'I' for Inactive)
REMARK    1  A    between atoms: C_1  and  O_2
REMARK    2  A    between atoms: O_2  and  C_3
REMARK    3  A    between atoms: C_6  and  C_7
REMARK    4  A    between atoms: C_8  and  C_9
REMARK    5  A    between atoms: C_8  and  C_14
REMARK    6  A    between atoms: C_9  and  C_10
REMARK    7  A    between atoms: C_10  and  C_11
REMARK    8  A    between atoms: C_11  and  O_13
REMARK    9  A    between atoms: C_23  and  O_25
REMARK   10  A    between atoms: O_25  and  C_26
REMARK                            x       y       z     vdW  Elec       q    Type
REMARK                         _______ _______ _______ _____ _____    ______ ____
ROOT
ATOM      1  C   UNL     1     -30.705 -10.833  18.641  0.00  0.00    +0.017 C 
ATOM      2  C   UNL     1     -30.485 -12.165  18.652  0.00  0.00    -0.014 C 
ENDROOT
BRANCH   2   3
ATOM      3  C   UNL     1     -29.360 -12.725  19.444  0.00  0.00    +0.106 A 
ATOM      4  N   UNL     1     -28.064 -12.641  19.045  0.00  0.00    -0.239 NA
ATOM      5  C   UNL     1     -27.228 -13.226  19.942  0.00  0.00    +0.079 A 
ATOM      6  C   UNL     1     -25.842 -13.293  19.798  0.00  0.00    +0.029 A 
ATOM      7  C   UNL     1     -25.089 -13.928  20.802  0.00  0.00    +0.002 A 
ATOM      8  C   UNL     1     -25.728 -14.484  21.928  0.00  0.00    +0.001 A 
ATOM      9  C   UNL     1     -27.124 -14.409  22.062  0.00  0.00    +0.017 A 
ATOM     10  C   UNL     1     -27.844 -13.774  21.054  0.00  0.00    +0.040 A 
ATOM     11  S   UNL     1     -29.498 -13.533  20.936  0.00  0.00    -0.067 S 
ENDBRANCH   2   3
BRANCH   1  15
ATOM     12  C   UNL     1     -33.930  -8.920  16.559  0.00  0.00    +0.124 A 
ATOM     13  C   UNL     1     -32.840  -9.440  15.858  0.00  0.00    +0.046 A 
ATOM     14  C   UNL     1     -31.793 -10.064  16.536  0.00  0.00    +0.015 A 
ATOM     15  C   UNL     1     -31.828 -10.191  17.932  0.00  0.00    +0.017 A 
ATOM     16  C   UNL     1     -32.908  -9.657  18.657  0.00  0.00    +0.131 A 
ATOM     17  C   UNL     1     -33.961  -9.027  17.963  0.00  0.00    +0.091 A 
BRANCH  12  19
ATOM     18  C   UNL     1     -34.939  -6.947  15.399  0.00  0.00    +0.277 C 
ATOM     19  O   UNL     1     -34.958  -8.305  15.828  0.00  0.00    -0.495 OA
ENDBRANCH  12  19
BRANCH  16  20
ATOM     20  O   UNL     1     -32.907  -9.779  20.057  0.00  0.00    -0.494 OA
ATOM     21  C   UNL     1     -34.058  -9.640  20.882  0.00  0.00    +0.277 C 
ENDBRANCH  16  20
ENDBRANCH   1  15
BRANCH   2  22
ATOM     22  C   UNL     1     -31.437 -13.132  17.973  0.00  0.00    +0.049 C 
BRANCH  22  23
ATOM     23  C   UNL     1     -30.679 -14.352  17.442  0.00  0.00    +0.125 C 
BRANCH  23  24
ATOM     24  C   UNL     1     -29.724 -13.946  16.365  0.00  0.00    +0.305 C 
ATOM     25  O   UNL     1     -30.125 -13.253  15.392  0.00  0.00    -0.251 OA
BRANCH  24  26
ATOM     26  O   UNL     1     -28.381 -14.297  16.464  0.00  0.00    -0.481 OA
ATOM     27  H   UNL     1     -28.035 -15.149  16.039  0.00  0.00    +0.295 HD
ENDBRANCH  24  26
ENDBRANCH  23  24
ENDBRANCH  22  23
ENDBRANCH   2  22
TORSDOF 8
ENDMDL
MODEL 5
REMARK VINA RESULT:    -4.562      2.754      6.409
REMARK INTER + INTRA:          -6.947
REMARK INTER:                  -6.139
REMARK INTRA:                  -0.807
REMARK UNBOUND:                -0.385
REMARK  Name = 
REMARK  10 active torsions:
REMARK  status: ('A' for Active; 'I' for Inactive)
REMARK    1  A    between atoms: C_1  and  O_2
REMARK    2  A    between atoms: O_2  and  C_3
REMARK    3  A    between atoms: C_6  and  C_7
REMARK    4  A    between atoms: C_8  and  C_9
REMARK    5  A    between atoms: C_8  and  C_14
REMARK    6  A    between atoms: C_9  and  C_10
REMARK    7  A    between atoms: C_10  and  C_11
REMARK    8  A    between atoms: C_11  and  O_13
REMARK    9  A    between atoms: C_23  and  O_25
REMARK   10  A    between atoms: O_25  and  C_26
REMARK                            x       y       z     vdW  Elec       q    Type
REMARK                         _______ _______ _______ _____ _____    ______ ____
ROOT
ATOM      1  C   UNL     1     -32.018 -12.307  16.675  0.00  0.00    +0.017 C 
ATOM      2  C   UNL     1     -31.428 -11.401  17.483  0.00  0.00    -0.014 C 
ENDROOT
BRANCH   2   3
ATOM      3  C   UNL     1     -32.202 -10.773  18.585  0.00  0.00    +0.106 A 
ATOM      4  N   UNL     1     -32.577  -9.468  18.572  0.00  0.00    -0.239 NA
ATOM      5  C   UNL     1     -33.276  -9.138  19.689  0.00  0.00    +0.079 A 
ATOM      6  C   UNL     1     -33.788  -7.867  19.951  0.00  0.00    +0.029 A 
ATOM      7  C   UNL     1     -34.494  -7.658  21.149  0.00  0.00    +0.002 A 
ATOM      8  C   UNL     1     -34.678  -8.716  22.062  0.00  0.00    +0.001 A 
ATOM      9  C   UNL     1     -34.158  -9.991  21.787  0.00  0.00    +0.017 A 
ATOM     10  C   UNL     1     -33.464 -10.169  20.594  0.00  0.00    +0.040 A 
ATOM     11  S   UNL     1     -32.738 -11.557  19.998  0.00  0.00    -0.067 S 
ENDBRANCH   2   3
BRANCH   1  15
ATOM     12  C   UNL     1     -29.926 -14.362  13.546  0.00  0.00    +0.124 A 
ATOM     13  C   UNL     1     -29.608 -14.596  14.886  0.00  0.00    +0.046 A 
ATOM     14  C   UNL     1     -30.291 -13.928  15.903  0.00  0.00    +0.015 A 
ATOM     15  C   UNL     1     -31.317 -13.024  15.593  0.00  0.00    +0.017 A 
ATOM     16  C   UNL     1     -31.638 -12.762  14.249  0.00  0.00    +0.131 A 
ATOM     17  C   UNL     1     -30.942 -13.440  13.228  0.00  0.00    +0.091 A 
BRANCH  12  19
ATOM     18  C   UNL     1     -27.814 -14.913  12.323  0.00  0.00    +0.277 C 
ATOM     19  O   UNL     1     -29.210 -15.062  12.562  0.00  0.00    -0.495 OA
ENDBRANCH  12  19
BRANCH  16  20
ATOM     20  O   UNL     1     -32.656 -11.835  13.967  0.00  0.00    -0.494 OA
ATOM     21  C   UNL     1     -33.732 -12.065  13.064  0.00  0.00    +0.277 C 
ENDBRANCH  16  20
ENDBRANCH   1  15
BRANCH   2  22
ATOM     22  C   UNL     1     -29.947 -11.091  17.380  0.00  0.00    +0.049 C 
BRANCH  22  23
ATOM     23  C   UNL     1     -29.250 -11.327  18.723  0.00  0.00    +0.125 C 
BRANCH  23  24
ATOM     24  C   UNL     1     -27.925 -11.992  18.514  0.00  0.00    +0.305 C 
ATOM     25  O   UNL     1     -26.861 -11.324  18.614  0.00  0.00    -0.251 OA
BRANCH  24  26
ATOM     26  O   UNL     1     -27.870 -13.357  18.254  0.00  0.00    -0.481 OA
ATOM     27  H   UNL     1     -27.276 -13.966  18.804  0.00  0.00    +0.295 HD
ENDBRANCH  24  26
ENDBRANCH  23  24
ENDBRANCH  22  23
ENDBRANCH   2  22
TORSDOF 8
ENDMDL
MODEL 6
REMARK VINA RESULT:    -4.433      3.417      6.733
REMARK INTER + INTRA:          -6.762
REMARK INTER:                  -5.333
REMARK INTRA:                  -1.429
REMARK UNBOUND:                -0.385
REMARK  Name = 
REMARK  10 active torsions:
REMARK  status: ('A' for Active; 'I' for Inactive)
REMARK    1  A    between atoms: C_1  and  O_2
REMARK    2  A    between atoms: O_2  and  C_3
REMARK    3  A    between atoms: C_6  and  C_7
REMARK    4  A    between atoms: C_8  and  C_9
REMARK    5  A    between atoms: C_8  and  C_14
REMARK    6  A    between atoms: C_9  and  C_10
REMARK    7  A    between atoms: C_10  and  C_11
REMARK    8  A    between atoms: C_11  and  O_13
REMARK    9  A    between atoms: C_23  and  O_25
REMARK   10  A    between atoms: O_25  and  C_26
REMARK                            x       y       z     vdW  Elec       q    Type
REMARK                         _______ _______ _______ _____ _____    ______ ____
ROOT
ATOM      1  C   UNL     1     -30.786 -10.406  17.325  0.00  0.00    +0.017 C 
ATOM      2  C   UNL     1     -31.636 -10.322  18.370  0.00  0.00    -0.014 C 
ENDROOT
BRANCH   2   3
ATOM      3  C   UNL     1     -31.780  -9.042  19.110  0.00  0.00    +0.106 A 
ATOM      4  N   UNL     1     -30.790  -8.521  19.881  0.00  0.00    -0.239 NA
ATOM      5  C   UNL     1     -31.166  -7.346  20.448  0.00  0.00    +0.079 A 
ATOM      6  C   UNL     1     -30.356  -6.583  21.290  0.00  0.00    +0.029 A 
ATOM      7  C   UNL     1     -30.867  -5.382  21.812  0.00  0.00    +0.002 A 
ATOM      8  C   UNL     1     -32.173  -4.961  21.487  0.00  0.00    +0.001 A 
ATOM      9  C   UNL     1     -32.978  -5.737  20.637  0.00  0.00    +0.017 A 
ATOM     10  C   UNL     1     -32.446  -6.921  20.135  0.00  0.00    +0.040 A 
ATOM     11  S   UNL     1     -33.157  -8.042  19.112  0.00  0.00    -0.067 S 
ENDBRANCH   2   3
BRANCH   1  15
ATOM     12  C   UNL     1     -30.359 -13.932  14.921  0.00  0.00    +0.124 A 
ATOM     13  C   UNL     1     -31.177 -12.880  14.502  0.00  0.00    +0.046 A 
ATOM     14  C   UNL     1     -31.313 -11.733  15.284  0.00  0.00    +0.015 A 
ATOM     15  C   UNL     1     -30.618 -11.614  16.495  0.00  0.00    +0.017 A 
ATOM     16  C   UNL     1     -29.805 -12.670  16.944  0.00  0.00    +0.131 A 
ATOM     17  C   UNL     1     -29.674 -13.826  16.147  0.00  0.00    +0.091 A 
BRANCH  12  19
ATOM     18  C   UNL     1     -30.052 -15.015  12.687  0.00  0.00    +0.277 C 
ATOM     19  O   UNL     1     -30.255 -15.062  14.096  0.00  0.00    -0.495 OA
ENDBRANCH  12  19
BRANCH  16  20
ATOM     20  O   UNL     1     -29.137 -12.533  18.172  0.00  0.00    -0.494 OA
ATOM     21  C   UNL     1     -27.830 -11.991  18.326  0.00  0.00    +0.277 C 
ENDBRANCH  16  20
ENDBRANCH   1  15
BRANCH   2  22
ATOM     22  C   UNL     1     -32.555 -11.472  18.740  0.00  0.00    +0.049 C 
BRANCH  22  23
ATOM     23  C   UNL     1     -32.459 -11.779  20.237  0.00  0.00    +0.125 C 
BRANCH  23  24
ATOM     24  C   UNL     1     -31.212 -12.549  20.534  0.00  0.00    +0.305 C 
ATOM     25  O   UNL     1     -30.339 -12.065  21.304  0.00  0.00    -0.251 OA
BRANCH  24  26
ATOM     26  O   UNL     1     -31.038 -13.819  19.995  0.00  0.00    -0.481 OA
ATOM     27  H   UNL     1     -30.484 -13.956  19.157  0.00  0.00    +0.295 HD
ENDBRANCH  24  26
ENDBRANCH  23  24
ENDBRANCH  22  23
ENDBRANCH   2  22
TORSDOF 8
ENDMDL
MODEL 7
REMARK VINA RESULT:    -4.397      3.444      6.851
REMARK INTER + INTRA:          -6.709
REMARK INTER:                  -5.325
REMARK INTRA:                  -1.384
REMARK UNBOUND:                -0.385
REMARK  Name = 
REMARK  10 active torsions:
REMARK  status: ('A' for Active; 'I' for Inactive)
REMARK    1  A    between atoms: C_1  and  O_2
REMARK    2  A    between atoms: O_2  and  C_3
REMARK    3  A    between atoms: C_6  and  C_7
REMARK    4  A    between atoms: C_8  and  C_9
REMARK    5  A    between atoms: C_8  and  C_14
REMARK    6  A    between atoms: C_9  and  C_10
REMARK    7  A    between atoms: C_10  and  C_11
REMARK    8  A    between atoms: C_11  and  O_13
REMARK    9  A    between atoms: C_23  and  O_25
REMARK   10  A    between atoms: O_25  and  C_26
REMARK                            x       y       z     vdW  Elec       q    Type
REMARK                         _______ _______ _______ _____ _____    ______ ____
ROOT
ATOM      1  C   UNL     1     -31.116 -10.437  16.971  0.00  0.00    +0.017 C 
ATOM      2  C   UNL     1     -31.849 -10.402  18.104  0.00  0.00    -0.014 C 
ENDROOT
BRANCH   2   3
ATOM      3  C   UNL     1     -31.969  -9.137  18.874  0.00  0.00    +0.106 A 
ATOM      4  N   UNL     1     -30.958  -8.637  19.630  0.00  0.00    -0.239 NA
ATOM      5  C   UNL     1     -31.314  -7.472  20.230  0.00  0.00    +0.079 A 
ATOM      6  C   UNL     1     -30.481  -6.729  21.067  0.00  0.00    +0.029 A 
ATOM      7  C   UNL     1     -30.974  -5.538  21.627  0.00  0.00    +0.002 A 
ATOM      8  C   UNL     1     -32.285  -5.106  21.344  0.00  0.00    +0.001 A 
ATOM      9  C   UNL     1     -33.115  -5.861  20.499  0.00  0.00    +0.017 A 
ATOM     10  C   UNL     1     -32.600  -7.037  19.959  0.00  0.00    +0.040 A 
ATOM     11  S   UNL     1     -33.342  -8.134  18.931  0.00  0.00    -0.067 S 
ENDBRANCH   2   3
BRANCH   1  15
ATOM     12  C   UNL     1     -30.674 -13.886  14.461  0.00  0.00    +0.124 A 
ATOM     13  C   UNL     1     -29.932 -13.763  15.638  0.00  0.00    +0.046 A 
ATOM     14  C   UNL     1     -30.079 -12.642  16.455  0.00  0.00    +0.015 A 
ATOM     15  C   UNL     1     -30.985 -11.628  16.111  0.00  0.00    +0.017 A 
ATOM     16  C   UNL     1     -31.726 -11.725  14.921  0.00  0.00    +0.131 A 
ATOM     17  C   UNL     1     -31.571 -12.861  14.101  0.00  0.00    +0.091 A 
BRANCH  12  19
ATOM     18  C   UNL     1     -29.790 -15.061  12.437  0.00  0.00    +0.277 C 
ATOM     19  O   UNL     1     -30.490 -15.035  13.677  0.00  0.00    -0.495 OA
ENDBRANCH  12  19
BRANCH  16  20
ATOM     20  O   UNL     1     -32.611 -10.684  14.591  0.00  0.00    -0.494 OA
ATOM     21  C   UNL     1     -34.012 -10.845  14.395  0.00  0.00    +0.277 C 
ENDBRANCH  16  20
ENDBRANCH   1  15
BRANCH   2  22
ATOM     22  C   UNL     1     -32.667 -11.598  18.556  0.00  0.00    +0.049 C 
BRANCH  22  23
ATOM     23  C   UNL     1     -32.392 -11.916  20.028  0.00  0.00    +0.125 C 
BRANCH  23  24
ATOM     24  C   UNL     1     -31.123 -12.696  20.167  0.00  0.00    +0.305 C 
ATOM     25  O   UNL     1     -30.143 -12.205  20.788  0.00  0.00    -0.251 OA
BRANCH  24  26
ATOM     26  O   UNL     1     -31.043 -13.984  19.645  0.00  0.00    -0.481 OA
ATOM     27  H   UNL     1     -31.498 -14.219  18.772  0.00  0.00    +0.295 HD
ENDBRANCH  24  26
ENDBRANCH  23  24
ENDBRANCH  22  23
ENDBRANCH   2  22
TORSDOF 8
ENDMDL
MODEL 8
REMARK VINA RESULT:    -4.362      3.313      5.928
REMARK INTER + INTRA:          -6.659
REMARK INTER:                  -5.458
REMARK INTRA:                  -1.201
REMARK UNBOUND:                -0.385
REMARK  Name = 
REMARK  10 active torsions:
REMARK  status: ('A' for Active; 'I' for Inactive)
REMARK    1  A    between atoms: C_1  and  O_2
REMARK    2  A    between atoms: O_2  and  C_3
REMARK    3  A    between atoms: C_6  and  C_7
REMARK    4  A    between atoms: C_8  and  C_9
REMARK    5  A    between atoms: C_8  and  C_14
REMARK    6  A    between atoms: C_9  and  C_10
REMARK    7  A    between atoms: C_10  and  C_11
REMARK    8  A    between atoms: C_11  and  O_13
REMARK    9  A    between atoms: C_23  and  O_25
REMARK   10  A    between atoms: O_25  and  C_26
REMARK                            x       y       z     vdW  Elec       q    Type
REMARK                         _______ _______ _______ _____ _____    ______ ____
ROOT
ATOM      1  C   UNL     1     -33.239 -10.460  17.246  0.00  0.00    +0.017 C 
ATOM      2  C   UNL     1     -32.007 -10.485  16.697  0.00  0.00    -0.014 C 
ENDROOT
BRANCH   2   3
ATOM      3  C   UNL     1     -31.679 -11.488  15.651  0.00  0.00    +0.106 A 
ATOM      4  N   UNL     1     -30.742 -12.455  15.825  0.00  0.00    -0.239 NA
ATOM      5  C   UNL     1     -30.632 -13.246  14.727  0.00  0.00    +0.079 A 
ATOM      6  C   UNL     1     -29.749 -14.321  14.615  0.00  0.00    +0.029 A 
ATOM      7  C   UNL     1     -29.735 -15.061  13.420  0.00  0.00    +0.002 A 
ATOM      8  C   UNL     1     -30.597 -14.720  12.359  0.00  0.00    +0.001 A 
ATOM      9  C   UNL     1     -31.481 -13.636  12.483  0.00  0.00    +0.017 A 
ATOM     10  C   UNL     1     -31.474 -12.921  13.678  0.00  0.00    +0.040 A 
ATOM     11  S   UNL     1     -32.403 -11.596  14.115  0.00  0.00    -0.067 S 
ENDBRANCH   2   3
BRANCH   1  15
ATOM     12  C   UNL     1     -34.459  -7.536  20.137  0.00  0.00    +0.124 A 
ATOM     13  C   UNL     1     -34.584  -7.279  18.770  0.00  0.00    +0.046 A 
ATOM     14  C   UNL     1     -34.189  -8.233  17.831  0.00  0.00    +0.015 A 
ATOM     15  C   UNL     1     -33.674  -9.468  18.248  0.00  0.00    +0.017 A 
ATOM     16  C   UNL     1     -33.522  -9.737  19.620  0.00  0.00    +0.131 A 
ATOM     17  C   UNL     1     -33.923  -8.767  20.562  0.00  0.00    +0.091 A 
BRANCH  12  19
ATOM     18  C   UNL     1     -34.083  -5.424  21.424  0.00  0.00    +0.277 C 
ATOM     19  O   UNL     1     -34.873  -6.544  21.040  0.00  0.00    -0.495 OA
ENDBRANCH  12  19
BRANCH  16  20
ATOM     20  O   UNL     1     -32.983 -10.975  20.009  0.00  0.00    -0.494 OA
ATOM     21  C   UNL     1     -32.389 -11.236  21.275  0.00  0.00    +0.277 C 
ENDBRANCH  16  20
ENDBRANCH   1  15
BRANCH   2  22
ATOM     22  C   UNL     1     -30.969  -9.429  17.028  0.00  0.00    +0.049 C 
BRANCH  22  23
ATOM     23  C   UNL     1     -29.663 -10.081  17.493  0.00  0.00    +0.125 C 
BRANCH  23  24
ATOM     24  C   UNL     1     -29.595 -10.107  18.987  0.00  0.00    +0.305 C 
ATOM     25  O   UNL     1     -29.369 -11.190  19.591  0.00  0.00    -0.251 OA
BRANCH  24  26
ATOM     26  O   UNL     1     -29.736  -8.924  19.707  0.00  0.00    -0.481 OA
ATOM     27  H   UNL     1     -28.926  -8.373  19.963  0.00  0.00    +0.295 HD
ENDBRANCH  24  26
ENDBRANCH  23  24
ENDBRANCH  22  23
ENDBRANCH   2  22
TORSDOF 8
ENDMDL
MODEL 9
REMARK VINA RESULT:    -4.151      3.688      6.315
REMARK INTER + INTRA:          -6.356
REMARK INTER:                  -5.109
REMARK INTRA:                  -1.247
REMARK UNBOUND:                -0.385
REMARK  Name = 
REMARK  10 active torsions:
REMARK  status: ('A' for Active; 'I' for Inactive)
REMARK    1  A    between atoms: C_1  and  O_2
REMARK    2  A    between atoms: O_2  and  C_3
REMARK    3  A    between atoms: C_6  and  C_7
REMARK    4  A    between atoms: C_8  and  C_9
REMARK    5  A    between atoms: C_8  and  C_14
REMARK    6  A    between atoms: C_9  and  C_10
REMARK    7  A    between atoms: C_10  and  C_11
REMARK    8  A    between atoms: C_11  and  O_13
REMARK    9  A    between atoms: C_23  and  O_25
REMARK   10  A    between atoms: O_25  and  C_26
REMARK                            x       y       z     vdW  Elec       q    Type
REMARK                         _______ _______ _______ _____ _____    ______ ____
ROOT
ATOM      1  C   UNL     1     -32.389 -10.014  16.420  0.00  0.00    +0.017 C 
ATOM      2  C   UNL     1     -32.421 -11.354  16.579  0.00  0.00    -0.014 C 
ENDROOT
BRANCH   2   3
ATOM      3  C   UNL     1     -31.660 -12.231  15.651  0.00  0.00    +0.106 A 
ATOM      4  N   UNL     1     -30.500 -12.843  16.003  0.00  0.00    -0.239 NA
ATOM      5  C   UNL     1     -30.002 -13.590  14.983  0.00  0.00    +0.079 A 
ATOM      6  C   UNL     1     -28.821 -14.330  15.052  0.00  0.00    +0.029 A 
ATOM      7  C   UNL     1     -28.417 -15.062  13.922  0.00  0.00    +0.002 A 
ATOM      8  C   UNL     1     -29.192 -15.045  12.745  0.00  0.00    +0.001 A 
ATOM      9  C   UNL     1     -30.379 -14.296  12.688  0.00  0.00    +0.017 A 
ATOM     10  C   UNL     1     -30.756 -13.581  13.822  0.00  0.00    +0.040 A 
ATOM     11  S   UNL     1     -32.101 -12.609  14.052  0.00  0.00    -0.067 S 
ENDBRANCH   2   3
BRANCH   1  15
ATOM     12  C   UNL     1     -34.358  -7.206  18.996  0.00  0.00    +0.124 A 
ATOM     13  C   UNL     1     -35.018  -7.736  17.885  0.00  0.00    +0.046 A 
ATOM     14  C   UNL     1     -34.377  -8.651  17.049  0.00  0.00    +0.015 A 
ATOM     15  C   UNL     1     -33.065  -9.063  17.323  0.00  0.00    +0.017 A 
ATOM     16  C   UNL     1     -32.378  -8.526  18.426  0.00  0.00    +0.131 A 
ATOM     17  C   UNL     1     -33.033  -7.601  19.264  0.00  0.00    +0.091 A 
BRANCH  12  19
ATOM     18  C   UNL     1     -35.062  -6.325  21.228  0.00  0.00    +0.277 C 
ATOM     19  O   UNL     1     -35.050  -6.291  19.805  0.00  0.00    -0.495 OA
ENDBRANCH  12  19
BRANCH  16  20
ATOM     20  O   UNL     1     -31.056  -8.940  18.664  0.00  0.00    -0.494 OA
ATOM     21  C   UNL     1     -30.439  -8.979  19.946  0.00  0.00    +0.277 C 
ENDBRANCH  16  20
ENDBRANCH   1  15
BRANCH   2  22
ATOM     22  C   UNL     1     -33.119 -11.997  17.763  0.00  0.00    +0.049 C 
BRANCH  22  23
ATOM     23  C   UNL     1     -32.101 -12.663  18.694  0.00  0.00    +0.125 C 
BRANCH  23  24
ATOM     24  C   UNL     1     -32.224 -12.116  20.080  0.00  0.00    +0.305 C 
ATOM     25  O   UNL     1     -31.295 -12.292  20.914  0.00  0.00    -0.251 OA
BRANCH  24  26
ATOM     26  O   UNL     1     -33.347 -11.375  20.434  0.00  0.00    -0.481 OA
ATOM     27  H   UNL     1     -33.998 -11.720  21.129  0.00  0.00    +0.295 HD
ENDBRANCH  24  26
ENDBRANCH  23  24
ENDBRANCH  22  23
ENDBRANCH   2  22
TORSDOF 8
ENDMDL
