MODEL 1
REMARK VINA RESULT:    -5.254      0.000      0.000
REMARK INTER + INTRA:          -6.822
REMARK INTER:                  -6.329
REMARK INTRA:                  -0.493
REMARK UNBOUND:                -0.493
REMARK  Name = 
REMARK  4 active torsions:
REMARK  status: ('A' for Active; 'I' for Inactive)
REMARK    1  A    between atoms: N_1  and  S_2
REMARK    2  A    between atoms: S_2  and  C_5
REMARK    3  A    between atoms: C_8  and  C_11
REMARK    4  A    between atoms: N_13  and  C_14
REMARK                            x       y       z     vdW  Elec       q    Type
REMARK                         _______ _______ _______ _____ _____    ______ ____
ROOT
ATOM      1  C   UNL     1     -30.830 -10.574  17.424  0.00  0.00    +0.245 C 
ATOM      2  O   UNL     1     -30.473  -9.385  17.194  0.00  0.00    -0.270 OA
ATOM      3  N   UNL     1     -32.026 -11.088  16.816  0.00  0.00    -0.301 N 
ATOM      4  H   UNL     1     -32.402 -12.010  17.132  0.00  0.00    +0.150 HD
ENDROOT
BRANCH   3   5
ATOM      5  C   UNL     1     -32.642 -10.453  15.648  0.00  0.00    +0.144 C 
ATOM      6  C   UNL     1     -34.149 -10.154  15.891  0.00  0.00    +0.256 C 
ATOM      7  O   UNL     1     -34.862 -10.957  14.950  0.00  0.00    -0.489 OA
ATOM      8  C   UNL     1     -33.980 -11.663  14.163  0.00  0.00    +0.126 A 
ATOM      9  C   UNL     1     -34.306 -12.538  13.127  0.00  0.00    +0.046 A 
ATOM     10  C   UNL     1     -33.257 -13.166  12.434  0.00  0.00    +0.004 A 
ATOM     11  C   UNL     1     -31.918 -12.908  12.788  0.00  0.00    +0.001 A 
ATOM     12  C   UNL     1     -31.622 -12.021  13.837  0.00  0.00    +0.009 A 
ATOM     13  C   UNL     1     -32.684 -11.412  14.510  0.00  0.00    +0.018 A 
ENDBRANCH   3   5
BRANCH   1  17
ATOM     14  C   UNL     1     -28.437 -13.002  20.045  0.00  0.00    +0.105 A 
ATOM     15  C   UNL     1     -27.861 -11.935  19.344  0.00  0.00    +0.029 A 
ATOM     16  C   UNL     1     -28.642 -11.146  18.495  0.00  0.00    +0.015 A 
ATOM     17  C   UNL     1     -30.014 -11.412  18.335  0.00  0.00    +0.037 A 
ATOM     18  C   UNL     1     -30.581 -12.498  19.026  0.00  0.00    +0.015 A 
ATOM     19  C   UNL     1     -29.797 -13.286  19.873  0.00  0.00    +0.029 A 
BRANCH  14  20
ATOM     20  S   UNL     1     -27.448 -14.007  21.099  0.00  0.00    +0.056 S 
ATOM     21  O   UNL     1     -28.332 -14.824  21.999  0.00  0.00    -0.153 OA
ATOM     22  O   UNL     1     -26.567 -13.137  21.952  0.00  0.00    -0.153 OA
BRANCH  20  23
ATOM     23  N   UNL     1     -26.466 -15.062  20.144  0.00  0.00    -0.204 NA
ATOM     24  H   UNL     1     -26.067 -14.487  19.369  0.00  0.00    +0.144 HD
ATOM     25  H   UNL     1     -25.664 -15.357  20.744  0.00  0.00    +0.144 HD
ENDBRANCH  20  23
ENDBRANCH  14  20
ENDBRANCH   1  17
TORSDOF 4
ENDMDL
MODEL 2
REMARK VINA RESULT:    -4.227      3.487      4.847
REMARK INTER + INTRA:          -5.585
REMARK INTER:                  -5.052
REMARK INTRA:                  -0.533
REMARK UNBOUND:                -0.493
REMARK  Name = 
REMARK  4 active torsions:
REMARK  status: ('A' for Active; 'I' for Inactive)
REMARK    1  A    between atoms: N_1  and  S_2
REMARK    2  A    between atoms: S_2  and  C_5
REMARK    3  A    between atoms: C_8  and  C_11
REMARK    4  A    between atoms: N_13  and  C_14
REMARK                            x       y       z     vdW  Elec       q    Type
REMARK                         _______ _______ _______ _____ _____    ______ ____
ROOT
ATOM      1  C   UNL     1     -31.162 -12.168  17.671  0.00  0.00    +0.245 C 
ATOM      2  O   UNL     1     -31.386 -13.244  18.292  0.00  0.00    -0.270 OA
ATOM      3  N   UNL     1     -30.917 -12.203  16.255  0.00  0.00    -0.301 N 
ATOM      4  H   UNL     1     -30.577 -11.339  15.775  0.00  0.00    +0.150 HD
ENDROOT
BRANCH   3   5
ATOM      5  C   UNL     1     -31.295 -13.351  15.426  0.00  0.00    +0.144 C 
ATOM      6  C   UNL     1     -30.079 -13.900  14.627  0.00  0.00    +0.256 C 
ATOM      7  O   UNL     1     -30.396 -13.697  13.250  0.00  0.00    -0.489 OA
ATOM      8  C   UNL     1     -31.647 -13.135  13.126  0.00  0.00    +0.126 A 
ATOM      9  C   UNL     1     -32.299 -12.808  11.938  0.00  0.00    +0.046 A 
ATOM     10  C   UNL     1     -33.582 -12.240  12.020  0.00  0.00    +0.004 A 
ATOM     11  C   UNL     1     -34.179 -12.014  13.276  0.00  0.00    +0.001 A 
ATOM     12  C   UNL     1     -33.496 -12.355  14.456  0.00  0.00    +0.009 A 
ATOM     13  C   UNL     1     -32.221 -12.916  14.345  0.00  0.00    +0.018 A 
ENDBRANCH   3   5
BRANCH   1  17
ATOM     14  C   UNL     1     -31.096  -8.443  19.816  0.00  0.00    +0.105 A 
ATOM     15  C   UNL     1     -31.999  -8.639  18.764  0.00  0.00    +0.029 A 
ATOM     16  C   UNL     1     -32.019  -9.852  18.069  0.00  0.00    +0.015 A 
ATOM     17  C   UNL     1     -31.137 -10.890  18.420  0.00  0.00    +0.037 A 
ATOM     18  C   UNL     1     -30.219 -10.678  19.465  0.00  0.00    +0.015 A 
ATOM     19  C   UNL     1     -30.200  -9.463  20.156  0.00  0.00    +0.029 A 
BRANCH  14  20
ATOM     20  S   UNL     1     -31.058  -6.907  20.677  0.00  0.00    +0.056 S 
ATOM     21  O   UNL     1     -31.776  -7.042  21.990  0.00  0.00    -0.153 OA
ATOM     22  O   UNL     1     -31.746  -5.849  19.859  0.00  0.00    -0.153 OA
BRANCH  20  23
ATOM     23  N   UNL     1     -29.419  -6.441  20.962  0.00  0.00    -0.204 NA
ATOM     24  H   UNL     1     -28.901  -7.304  21.241  0.00  0.00    +0.144 HD
ATOM     25  H   UNL     1     -29.025  -6.137  20.043  0.00  0.00    +0.144 HD
ENDBRANCH  20  23
ENDBRANCH  14  20
ENDBRANCH   1  17
TORSDOF 4
ENDMDL
MODEL 3
REMARK VINA RESULT:    -3.800      3.551      5.160
REMARK INTER + INTRA:          -5.071
REMARK INTER:                  -4.546
REMARK INTRA:                  -0.525
REMARK UNBOUND:                -0.493
REMARK  Name = 
REMARK  4 active torsions:
REMARK  status: ('A' for Active; 'I' for Inactive)
REMARK    1  A    between atoms: N_1  and  S_2
REMARK    2  A    between atoms: S_2  and  C_5
REMARK    3  A    between atoms: C_8  and  C_11
REMARK    4  A    between atoms: N_13  and  C_14
REMARK                            x       y       z     vdW  Elec       q    Type
REMARK                         _______ _______ _______ _____ _____    ______ ____
ROOT
ATOM      1  C   UNL     1     -31.093 -12.304  18.026  0.00  0.00    +0.245 C 
ATOM      2  O   UNL     1     -31.510 -13.286  18.699  0.00  0.00    -0.270 OA
ATOM      3  N   UNL     1     -30.575 -12.518  16.702  0.00  0.00    -0.301 N 
ATOM      4  H   UNL     1     -30.087 -11.734  16.213  0.00  0.00    +0.150 HD
ENDROOT
BRANCH   3   5
ATOM      5  C   UNL     1     -30.860 -13.737  15.941  0.00  0.00    +0.144 C 
ATOM      6  C   UNL     1     -29.551 -14.449  15.495  0.00  0.00    +0.256 C 
ATOM      7  O   UNL     1     -29.549 -14.401  14.068  0.00  0.00    -0.489 OA
ATOM      8  C   UNL     1     -30.694 -13.790  13.610  0.00  0.00    +0.126 A 
ATOM      9  C   UNL     1     -31.049 -13.577  12.278  0.00  0.00    +0.046 A 
ATOM     10  C   UNL     1     -32.270 -12.932  12.012  0.00  0.00    +0.004 A 
ATOM     11  C   UNL     1     -33.100 -12.519  13.073  0.00  0.00    +0.001 A 
ATOM     12  C   UNL     1     -32.714 -12.748  14.404  0.00  0.00    +0.009 A 
ATOM     13  C   UNL     1     -31.496 -13.389  14.641  0.00  0.00    +0.018 A 
ENDBRANCH   3   5
BRANCH   1  17
ATOM     14  C   UNL     1     -31.197  -8.358  19.729  0.00  0.00    +0.105 A 
ATOM     15  C   UNL     1     -31.978  -8.667  18.609  0.00  0.00    +0.029 A 
ATOM     16  C   UNL     1     -31.944  -9.951  18.059  0.00  0.00    +0.015 A 
ATOM     17  C   UNL     1     -31.128 -10.948  18.624  0.00  0.00    +0.037 A 
ATOM     18  C   UNL     1     -30.329 -10.624  19.736  0.00  0.00    +0.015 A 
ATOM     19  C   UNL     1     -30.365  -9.338  20.282  0.00  0.00    +0.029 A 
BRANCH  14  20
ATOM     20  S   UNL     1     -31.226  -6.733  20.409  0.00  0.00    +0.056 S 
ATOM     21  O   UNL     1     -29.821  -6.257  20.650  0.00  0.00    -0.153 OA
ATOM     22  O   UNL     1     -31.962  -6.743  21.719  0.00  0.00    -0.153 OA
BRANCH  20  23
ATOM     23  N   UNL     1     -32.017  -5.658  19.310  0.00  0.00    -0.204 NA
ATOM     24  H   UNL     1     -32.725  -6.221  18.789  0.00  0.00    +0.144 HD
ATOM     25  H   UNL     1     -32.547  -4.968  19.889  0.00  0.00    +0.144 HD
ENDBRANCH  20  23
ENDBRANCH  14  20
ENDBRANCH   1  17
TORSDOF 4
ENDMDL
MODEL 4
REMARK VINA RESULT:    -3.570      3.184      4.892
REMARK INTER + INTRA:          -4.794
REMARK INTER:                  -4.322
REMARK INTRA:                  -0.472
REMARK UNBOUND:                -0.493
REMARK  Name = 
REMARK  4 active torsions:
REMARK  status: ('A' for Active; 'I' for Inactive)
REMARK    1  A    between atoms: N_1  and  S_2
REMARK    2  A    between atoms: S_2  and  C_5
REMARK    3  A    between atoms: C_8  and  C_11
REMARK    4  A    between atoms: N_13  and  C_14
REMARK                            x       y       z     vdW  Elec       q    Type
REMARK                         _______ _______ _______ _____ _____    ______ ____
ROOT
ATOM      1  C   UNL     1     -31.758 -11.957  19.568  0.00  0.00    +0.245 C 
ATOM      2  O   UNL     1     -32.688 -12.611  20.115  0.00  0.00    -0.270 OA
ATOM      3  N   UNL     1     -32.077 -10.843  18.718  0.00  0.00    -0.301 N 
ATOM      4  H   UNL     1     -31.320 -10.406  18.144  0.00  0.00    +0.150 HD
ENDROOT
BRANCH   3   5
ATOM      5  C   UNL     1     -33.383 -10.181  18.757  0.00  0.00    +0.144 C 
ATOM      6  C   UNL     1     -33.792  -9.644  17.355  0.00  0.00    +0.256 C 
ATOM      7  O   UNL     1     -33.855  -8.224  17.486  0.00  0.00    -0.489 OA
ATOM      8  C   UNL     1     -33.574  -7.852  18.781  0.00  0.00    +0.126 A 
ATOM      9  C   UNL     1     -33.556  -6.553  19.289  0.00  0.00    +0.046 A 
ATOM     10  C   UNL     1     -33.246  -6.376  20.648  0.00  0.00    +0.004 A 
ATOM     11  C   UNL     1     -32.964  -7.491  21.462  0.00  0.00    +0.001 A 
ATOM     12  C   UNL     1     -32.990  -8.788  20.921  0.00  0.00    +0.009 A 
ATOM     13  C   UNL     1     -33.299  -8.934  19.567  0.00  0.00    +0.018 A 
ENDBRANCH   3   5
BRANCH   1  17
ATOM     14  C   UNL     1     -27.680 -13.158  20.212  0.00  0.00    +0.105 A 
ATOM     15  C   UNL     1     -28.165 -12.966  18.913  0.00  0.00    +0.029 A 
ATOM     16  C   UNL     1     -29.491 -12.573  18.707  0.00  0.00    +0.015 A 
ATOM     17  C   UNL     1     -30.352 -12.364  19.800  0.00  0.00    +0.037 A 
ATOM     18  C   UNL     1     -29.863 -12.580  21.101  0.00  0.00    +0.015 A 
ATOM     19  C   UNL     1     -28.537 -12.974  21.304  0.00  0.00    +0.029 A 
BRANCH  14  20
ATOM     20  S   UNL     1     -26.015 -13.672  20.469  0.00  0.00    +0.056 S 
ATOM     21  O   UNL     1     -25.813 -15.045  19.895  0.00  0.00    -0.153 OA
ATOM     22  O   UNL     1     -25.719 -13.718  21.942  0.00  0.00    -0.153 OA
BRANCH  20  23
ATOM     23  N   UNL     1     -24.939 -12.560  19.699  0.00  0.00    -0.204 NA
ATOM     24  H   UNL     1     -25.348 -11.607  19.818  0.00  0.00    +0.144 HD
ATOM     25  H   UNL     1     -24.046 -12.576  20.242  0.00  0.00    +0.144 HD
ENDBRANCH  20  23
ENDBRANCH  14  20
ENDBRANCH   1  17
TORSDOF 4
ENDMDL
MODEL 5
REMARK VINA RESULT:    -3.495      2.057      3.413
REMARK INTER + INTRA:          -4.704
REMARK INTER:                  -4.390
REMARK INTRA:                  -0.313
REMARK UNBOUND:                -0.493
REMARK  Name = 
REMARK  4 active torsions:
REMARK  status: ('A' for Active; 'I' for Inactive)
REMARK    1  A    between atoms: N_1  and  S_2
REMARK    2  A    between atoms: S_2  and  C_5
REMARK    3  A    between atoms: C_8  and  C_11
REMARK    4  A    between atoms: N_13  and  C_14
REMARK                            x       y       z     vdW  Elec       q    Type
REMARK                         _______ _______ _______ _____ _____    ______ ____
ROOT
ATOM      1  C   UNL     1     -32.567 -12.475  16.942  0.00  0.00    +0.245 C 
ATOM      2  O   UNL     1     -33.201 -13.480  16.519  0.00  0.00    -0.270 OA
ATOM      3  N   UNL     1     -32.956 -11.158  16.519  0.00  0.00    -0.301 N 
ATOM      4  H   UNL     1     -32.336 -10.347  16.741  0.00  0.00    +0.150 HD
ENDROOT
BRANCH   3   5
ATOM      5  C   UNL     1     -34.275 -10.882  15.942  0.00  0.00    +0.144 C 
ATOM      6  C   UNL     1     -34.306 -11.193  14.418  0.00  0.00    +0.256 C 
ATOM      7  O   UNL     1     -34.541  -9.943  13.771  0.00  0.00    -0.489 OA
ATOM      8  C   UNL     1     -34.687  -8.943  14.705  0.00  0.00    +0.126 A 
ATOM      9  C   UNL     1     -34.943  -7.595  14.450  0.00  0.00    +0.046 A 
ATOM     10  C   UNL     1     -35.062  -6.724  15.547  0.00  0.00    +0.004 A 
ATOM     11  C   UNL     1     -34.924  -7.213  16.861  0.00  0.00    +0.001 A 
ATOM     12  C   UNL     1     -34.666  -8.576  17.085  0.00  0.00    +0.009 A 
ATOM     13  C   UNL     1     -34.551  -9.420  15.978  0.00  0.00    +0.018 A 
ENDBRANCH   3   5
BRANCH   1  17
ATOM     14  C   UNL     1     -29.220 -13.080  19.573  0.00  0.00    +0.105 A 
ATOM     15  C   UNL     1     -29.052 -13.152  18.185  0.00  0.00    +0.029 A 
ATOM     16  C   UNL     1     -30.142 -12.953  17.332  0.00  0.00    +0.015 A 
ATOM     17  C   UNL     1     -31.417 -12.675  17.856  0.00  0.00    +0.037 A 
ATOM     18  C   UNL     1     -31.583 -12.626  19.253  0.00  0.00    +0.015 A 
ATOM     19  C   UNL     1     -30.491 -12.827  20.102  0.00  0.00    +0.029 A 
BRANCH  14  20
ATOM     20  S   UNL     1     -27.851 -13.351  20.646  0.00  0.00    +0.056 S 
ATOM     21  O   UNL     1     -28.218 -12.957  22.049  0.00  0.00    -0.153 OA
ATOM     22  O   UNL     1     -26.683 -12.515  20.202  0.00  0.00    -0.153 OA
BRANCH  20  23
ATOM     23  N   UNL     1     -27.409 -15.022  20.614  0.00  0.00    -0.204 NA
ATOM     24  H   UNL     1     -26.372 -15.061  20.502  0.00  0.00    +0.144 HD
ATOM     25  H   UNL     1     -27.624 -15.411  21.560  0.00  0.00    +0.144 HD
ENDBRANCH  20  23
ENDBRANCH  14  20
ENDBRANCH   1  17
TORSDOF 4
ENDMDL
MODEL 6
REMARK VINA RESULT:    -3.289      2.852      4.583
REMARK INTER + INTRA:          -4.455
REMARK INTER:                  -3.907
REMARK INTRA:                  -0.548
REMARK UNBOUND:                -0.493
REMARK  Name = 
REMARK  4 active torsions:
REMARK  status: ('A' for Active; 'I' for Inactive)
REMARK    1  A    between atoms: N_1  and  S_2
REMARK    2  A    between atoms: S_2  and  C_5
REMARK    3  A    between atoms: C_8  and  C_11
REMARK    4  A    between atoms: N_13  and  C_14
REMARK                            x       y       z     vdW  Elec       q    Type
REMARK                         _______ _______ _______ _____ _____    ______ ____
ROOT
ATOM      1  C   UNL     1     -33.533 -10.880  16.912  0.00  0.00    +0.245 C 
ATOM      2  O   UNL     1     -34.561 -11.600  17.043  0.00  0.00    -0.270 OA
ATOM      3  N   UNL     1     -33.605  -9.671  16.137  0.00  0.00    -0.301 N 
ATOM      4  H   UNL     1     -32.722  -9.165  15.899  0.00  0.00    +0.150 HD
ENDROOT
BRANCH   3   5
ATOM      5  C   UNL     1     -34.880  -9.024  15.819  0.00  0.00    +0.144 C 
ATOM      6  C   UNL     1     -35.009  -8.740  14.295  0.00  0.00    +0.256 C 
ATOM      7  O   UNL     1     -35.062  -7.319  14.168  0.00  0.00    -0.489 OA
ATOM      8  C   UNL     1     -35.017  -6.727  15.410  0.00  0.00    +0.126 A 
ATOM      9  C   UNL     1     -35.062  -5.360  15.684  0.00  0.00    +0.046 A 
ATOM     10  C   UNL     1     -35.005  -4.951  17.027  0.00  0.00    +0.004 A 
ATOM     11  C   UNL     1     -34.906  -5.907  18.057  0.00  0.00    +0.001 A 
ATOM     12  C   UNL     1     -34.862  -7.277  17.749  0.00  0.00    +0.009 A 
ATOM     13  C   UNL     1     -34.918  -7.657  16.406  0.00  0.00    +0.018 A 
ENDBRANCH   3   5
BRANCH   1  17
ATOM     14  C   UNL     1     -29.834 -12.095  18.735  0.00  0.00    +0.105 A 
ATOM     15  C   UNL     1     -30.114 -10.738  18.539  0.00  0.00    +0.029 A 
ATOM     16  C   UNL     1     -31.319 -10.346  17.947  0.00  0.00    +0.015 A 
ATOM     17  C   UNL     1     -32.263 -11.308  17.546  0.00  0.00    +0.037 A 
ATOM     18  C   UNL     1     -31.965 -12.671  17.728  0.00  0.00    +0.015 A 
ATOM     19  C   UNL     1     -30.759 -13.059  18.318  0.00  0.00    +0.029 A 
BRANCH  14  20
ATOM     20  S   UNL     1     -28.308 -12.588  19.463  0.00  0.00    +0.056 S 
ATOM     21  O   UNL     1     -27.975 -11.679  20.612  0.00  0.00    -0.153 OA
ATOM     22  O   UNL     1     -27.206 -12.498  18.444  0.00  0.00    -0.153 OA
BRANCH  20  23
ATOM     23  N   UNL     1     -28.434 -14.215  20.033  0.00  0.00    -0.204 NA
ATOM     24  H   UNL     1     -28.141 -14.210  21.035  0.00  0.00    +0.144 HD
ATOM     25  H   UNL     1     -29.449 -14.464  20.017  0.00  0.00    +0.144 HD
ENDBRANCH  20  23
ENDBRANCH  14  20
ENDBRANCH   1  17
TORSDOF 4
ENDMDL
MODEL 7
REMARK VINA RESULT:    -3.252      1.752      3.297
REMARK INTER + INTRA:          -4.411
REMARK INTER:                  -4.671
REMARK INTRA:                   0.261
REMARK UNBOUND:                -0.493
REMARK  Name = 
REMARK  4 active torsions:
REMARK  status: ('A' for Active; 'I' for Inactive)
REMARK    1  A    between atoms: N_1  and  S_2
REMARK    2  A    between atoms: S_2  and  C_5
REMARK    3  A    between atoms: C_8  and  C_11
REMARK    4  A    between atoms: N_13  and  C_14
REMARK                            x       y       z     vdW  Elec       q    Type
REMARK                         _______ _______ _______ _____ _____    ______ ____
ROOT
ATOM      1  C   UNL     1     -30.902 -11.460  17.248  0.00  0.00    +0.245 C 
ATOM      2  O   UNL     1     -30.769 -10.490  16.453  0.00  0.00    -0.270 OA
ATOM      3  N   UNL     1     -32.197 -12.057  17.431  0.00  0.00    -0.301 N 
ATOM      4  H   UNL     1     -32.335 -12.749  18.202  0.00  0.00    +0.150 HD
ENDROOT
BRANCH   3   5
ATOM      5  C   UNL     1     -33.286 -11.867  16.470  0.00  0.00    +0.144 C 
ATOM      6  C   UNL     1     -32.756 -11.840  15.008  0.00  0.00    +0.256 C 
ATOM      7  O   UNL     1     -33.038 -10.529  14.516  0.00  0.00    -0.489 OA
ATOM      8  C   UNL     1     -33.692  -9.791  15.477  0.00  0.00    +0.126 A 
ATOM      9  C   UNL     1     -34.141  -8.476  15.354  0.00  0.00    +0.046 A 
ATOM     10  C   UNL     1     -34.793  -7.893  16.454  0.00  0.00    +0.004 A 
ATOM     11  C   UNL     1     -34.982  -8.629  17.640  0.00  0.00    +0.001 A 
ATOM     12  C   UNL     1     -34.519  -9.953  17.732  0.00  0.00    +0.009 A 
ATOM     13  C   UNL     1     -33.872 -10.507  16.625  0.00  0.00    +0.018 A 
ENDBRANCH   3   5
BRANCH   1  17
ATOM     14  C   UNL     1     -27.493 -12.903  19.435  0.00  0.00    +0.105 A 
ATOM     15  C   UNL     1     -28.718 -13.577  19.507  0.00  0.00    +0.029 A 
ATOM     16  C   UNL     1     -29.824 -13.107  18.793  0.00  0.00    +0.015 A 
ATOM     17  C   UNL     1     -29.720 -11.954  17.993  0.00  0.00    +0.037 A 
ATOM     18  C   UNL     1     -28.491 -11.270  17.943  0.00  0.00    +0.015 A 
ATOM     19  C   UNL     1     -27.388 -11.743  18.659  0.00  0.00    +0.029 A 
BRANCH  14  20
ATOM     20  S   UNL     1     -26.106 -13.486  20.351  0.00  0.00    +0.056 S 
ATOM     21  O   UNL     1     -24.938 -12.562  20.147  0.00  0.00    -0.153 OA
ATOM     22  O   UNL     1     -25.722 -14.859  19.874  0.00  0.00    -0.153 OA
BRANCH  20  23
ATOM     23  N   UNL     1     -26.504 -13.549  22.032  0.00  0.00    -0.204 NA
ATOM     24  H   UNL     1     -25.816 -14.190  22.484  0.00  0.00    +0.144 HD
ATOM     25  H   UNL     1     -26.329 -12.595  22.421  0.00  0.00    +0.144 HD
ENDBRANCH  20  23
ENDBRANCH  14  20
ENDBRANCH   1  17
TORSDOF 4
ENDMDL
MODEL 8
REMARK VINA RESULT:    -2.908      4.609      7.742
REMARK INTER + INTRA:          -3.996
REMARK INTER:                  -3.500
REMARK INTRA:                  -0.496
REMARK UNBOUND:                -0.493
REMARK  Name = 
REMARK  4 active torsions:
REMARK  status: ('A' for Active; 'I' for Inactive)
REMARK    1  A    between atoms: N_1  and  S_2
REMARK    2  A    between atoms: S_2  and  C_5
REMARK    3  A    between atoms: C_8  and  C_11
REMARK    4  A    between atoms: N_13  and  C_14
REMARK                            x       y       z     vdW  Elec       q    Type
REMARK                         _______ _______ _______ _____ _____    ______ ____
ROOT
ATOM      1  C   UNL     1     -32.676 -11.709  18.635  0.00  0.00    +0.245 C 
ATOM      2  O   UNL     1     -31.864 -12.426  19.282  0.00  0.00    -0.270 OA
ATOM      3  N   UNL     1     -33.475 -10.736  19.328  0.00  0.00    -0.301 N 
ATOM      4  H   UNL     1     -34.254 -10.260  18.820  0.00  0.00    +0.150 HD
ENDROOT
BRANCH   3   5
ATOM      5  C   UNL     1     -33.130 -10.255  20.668  0.00  0.00    +0.144 C 
ATOM      6  C   UNL     1     -34.308 -10.450  21.665  0.00  0.00    +0.256 C 
ATOM      7  O   UNL     1     -34.702  -9.137  22.062  0.00  0.00    -0.489 OA
ATOM      8  C   UNL     1     -33.895  -8.195  21.464  0.00  0.00    +0.126 A 
ATOM      9  C   UNL     1     -33.968  -6.812  21.625  0.00  0.00    +0.046 A 
ATOM     10  C   UNL     1     -33.047  -6.013  20.926  0.00  0.00    +0.004 A 
ATOM     11  C   UNL     1     -32.083  -6.609  20.089  0.00  0.00    +0.001 A 
ATOM     12  C   UNL     1     -32.035  -8.006  19.947  0.00  0.00    +0.009 A 
ATOM     13  C   UNL     1     -32.963  -8.776  20.652  0.00  0.00    +0.018 A 
ENDBRANCH   3   5
BRANCH   1  17
ATOM     14  C   UNL     1     -33.077 -12.265  14.390  0.00  0.00    +0.105 A 
ATOM     15  C   UNL     1     -34.093 -11.639  15.122  0.00  0.00    +0.029 A 
ATOM     16  C   UNL     1     -33.959 -11.457  16.501  0.00  0.00    +0.015 A 
ATOM     17  C   UNL     1     -32.803 -11.899  17.170  0.00  0.00    +0.037 A 
ATOM     18  C   UNL     1     -31.796 -12.547  16.432  0.00  0.00    +0.015 A 
ATOM     19  C   UNL     1     -31.934 -12.727  15.053  0.00  0.00    +0.029 A 
BRANCH  14  20
ATOM     20  S   UNL     1     -33.256 -12.511  12.656  0.00  0.00    +0.056 S 
ATOM     21  O   UNL     1     -33.367 -13.980  12.359  0.00  0.00    -0.153 OA
ATOM     22  O   UNL     1     -32.054 -11.965  11.938  0.00  0.00    -0.153 OA
BRANCH  20  23
ATOM     23  N   UNL     1     -34.679 -11.702  12.098  0.00  0.00    -0.204 NA
ATOM     24  H   UNL     1     -34.377 -11.029  11.359  0.00  0.00    +0.144 HD
ATOM     25  H   UNL     1     -35.272 -12.421  11.627  0.00  0.00    +0.144 HD
ENDBRANCH  20  23
ENDBRANCH  14  20
ENDBRANCH   1  17
TORSDOF 4
ENDMDL
