MODEL 1
REMARK VINA RESULT:    -4.844      0.000      0.000
REMARK INTER + INTRA:          -7.010
REMARK INTER:                  -5.976
REMARK INTRA:                  -1.033
REMARK UNBOUND:                -1.033
REMARK  Name = 
REMARK  5 active torsions:
REMARK  status: ('A' for Active; 'I' for Inactive)
REMARK    1  A    between atoms: C_1  and  C_2
REMARK    2  A    between atoms: C_2  and  C_3
REMARK    3  A    between atoms: C_2  and  S_16
REMARK    4  A    between atoms: N_5  and  C_6
REMARK    5  A    between atoms: S_16  and  C_19
REMARK                            x       y       z     vdW  Elec       q    Type
REMARK                         _______ _______ _______ _____ _____    ______ ____
ROOT
ATOM      1  C   UNL     1     -31.976 -10.743  20.252  0.00  0.00    +0.242 C 
ATOM      2  O   UNL     1     -31.272 -10.030  21.020  0.00  0.00    -0.273 OA
ATOM      3  N   UNL     1     -31.458 -11.977  19.731  0.00  0.00    -0.284 N 
ATOM      4  H   UNL     1     -32.142 -12.686  19.381  0.00  0.00    +0.155 HD
ENDROOT
BRANCH   3   5
ATOM      5  C   UNL     1     -30.066 -12.337  19.755  0.00  0.00    +0.037 A 
ATOM      6  C   UNL     1     -29.201 -11.803  18.785  0.00  0.00    +0.027 A 
ATOM      7  C   UNL     1     -27.839 -12.125  18.793  0.00  0.00    +0.051 A 
ATOM      8  C   UNL     1     -27.331 -12.970  19.782  0.00  0.00    +0.162 A 
ATOM      9  O   UNL     1     -25.979 -13.329  19.793  0.00  0.00    -0.485 OA
ATOM     10  C   UNL     1     -25.504 -14.390  20.626  0.00  0.00    +0.270 C 
ATOM     11  C   UNL     1     -26.218 -14.359  21.983  0.00  0.00    +0.270 C 
ATOM     12  O   UNL     1     -27.633 -14.264  21.796  0.00  0.00    -0.485 OA
ATOM     13  C   UNL     1     -28.175 -13.466  20.783  0.00  0.00    +0.164 A 
ATOM     14  C   UNL     1     -29.540 -13.160  20.769  0.00  0.00    +0.072 A 
ENDBRANCH   3   5
BRANCH   1  16
ATOM     15  C   UNL     1     -34.068  -9.708  21.144  0.00  0.00    +0.042 C 
ATOM     16  C   UNL     1     -33.379 -10.314  19.919  0.00  0.00    +0.218 C 
BRANCH  16  17
ATOM     17  S   UNL     1     -33.362  -9.151  18.556  0.00  0.00    +0.011 S 
ATOM     18  O   UNL     1     -32.326  -8.090  18.807  0.00  0.00    -0.169 OA
ATOM     19  O   UNL     1     -34.706  -8.486  18.436  0.00  0.00    -0.169 OA
BRANCH  17  20
ATOM     20  C   UNL     1     -32.974  -9.999  17.059  0.00  0.00    +0.127 A 
ATOM     21  C   UNL     1     -33.953 -10.763  16.406  0.00  0.00    +0.068 A 
ATOM     22  C   UNL     1     -33.643 -11.448  15.228  0.00  0.00    +0.125 A 
ATOM     23  F   UNL     1     -34.593 -12.184  14.601  0.00  0.00    -0.205 F 
ATOM     24  C   UNL     1     -32.351 -11.379  14.698  0.00  0.00    +0.041 A 
ATOM     25  C   UNL     1     -31.369 -10.625  15.347  0.00  0.00    +0.043 A 
ATOM     26  C   UNL     1     -31.675  -9.938  16.526  0.00  0.00    +0.148 A 
ATOM     27  F   UNL     1     -30.705  -9.222  17.148  0.00  0.00    -0.203 F 
ENDBRANCH  17  20
ENDBRANCH  16  17
ENDBRANCH   1  16
TORSDOF 4
ENDMDL
MODEL 2
REMARK VINA RESULT:    -4.818      2.421      3.384
REMARK INTER + INTRA:          -6.978
REMARK INTER:                  -6.042
REMARK INTRA:                  -0.936
REMARK UNBOUND:                -1.033
REMARK  Name = 
REMARK  5 active torsions:
REMARK  status: ('A' for Active; 'I' for Inactive)
REMARK    1  A    between atoms: C_1  and  C_2
REMARK    2  A    between atoms: C_2  and  C_3
REMARK    3  A    between atoms: C_2  and  S_16
REMARK    4  A    between atoms: N_5  and  C_6
REMARK    5  A    between atoms: S_16  and  C_19
REMARK                            x       y       z     vdW  Elec       q    Type
REMARK                         _______ _______ _______ _____ _____    ______ ____
ROOT
ATOM      1  C   UNL     1     -31.890 -12.400  17.708  0.00  0.00    +0.242 C 
ATOM      2  O   UNL     1     -31.930 -13.662  17.671  0.00  0.00    -0.273 OA
ATOM      3  N   UNL     1     -30.801 -11.728  18.359  0.00  0.00    -0.284 N 
ATOM      4  H   UNL     1     -30.618 -10.731  18.104  0.00  0.00    +0.155 HD
ENDROOT
BRANCH   3   5
ATOM      5  C   UNL     1     -29.885 -12.372  19.263  0.00  0.00    +0.037 A 
ATOM      6  C   UNL     1     -30.375 -12.928  20.456  0.00  0.00    +0.027 A 
ATOM      7  C   UNL     1     -29.509 -13.573  21.347  0.00  0.00    +0.051 A 
ATOM      8  C   UNL     1     -28.150 -13.679  21.041  0.00  0.00    +0.162 A 
ATOM      9  O   UNL     1     -27.261 -14.293  21.930  0.00  0.00    -0.485 OA
ATOM     10  C   UNL     1     -25.847 -14.174  21.758  0.00  0.00    +0.270 C 
ATOM     11  C   UNL     1     -25.485 -14.240  20.269  0.00  0.00    +0.270 C 
ATOM     12  O   UNL     1     -26.308 -13.341  19.520  0.00  0.00    -0.485 OA
ATOM     13  C   UNL     1     -27.662 -13.173  19.830  0.00  0.00    +0.164 A 
ATOM     14  C   UNL     1     -28.521 -12.513  18.946  0.00  0.00    +0.072 A 
ENDBRANCH   3   5
BRANCH   1  16
ATOM     15  C   UNL     1     -33.565 -10.568  17.984  0.00  0.00    +0.042 C 
ATOM     16  C   UNL     1     -32.969 -11.603  17.028  0.00  0.00    +0.218 C 
BRANCH  16  17
ATOM     17  S   UNL     1     -32.318 -10.813  15.557  0.00  0.00    +0.011 S 
ATOM     18  O   UNL     1     -30.854 -10.527  15.740  0.00  0.00    -0.169 OA
ATOM     19  O   UNL     1     -33.033  -9.511  15.319  0.00  0.00    -0.169 OA
BRANCH  17  20
ATOM     20  C   UNL     1     -32.532 -11.879  14.168  0.00  0.00    +0.127 A 
ATOM     21  C   UNL     1     -31.498 -12.745  13.778  0.00  0.00    +0.068 A 
ATOM     22  C   UNL     1     -31.660 -13.580  12.668  0.00  0.00    +0.125 A 
ATOM     23  F   UNL     1     -30.659 -14.415  12.296  0.00  0.00    -0.205 F 
ATOM     24  C   UNL     1     -32.852 -13.550  11.938  0.00  0.00    +0.041 A 
ATOM     25  C   UNL     1     -33.882 -12.685  12.318  0.00  0.00    +0.043 A 
ATOM     26  C   UNL     1     -33.725 -11.849  13.427  0.00  0.00    +0.148 A 
ATOM     27  F   UNL     1     -34.732 -11.007  13.771  0.00  0.00    -0.203 F 
ENDBRANCH  17  20
ENDBRANCH  16  17
ENDBRANCH   1  16
TORSDOF 4
ENDMDL
MODEL 3
REMARK VINA RESULT:    -4.632      3.032      6.414
REMARK INTER + INTRA:          -6.749
REMARK INTER:                  -5.667
REMARK INTRA:                  -1.082
REMARK UNBOUND:                -1.033
REMARK  Name = 
REMARK  5 active torsions:
REMARK  status: ('A' for Active; 'I' for Inactive)
REMARK    1  A    between atoms: C_1  and  C_2
REMARK    2  A    between atoms: C_2  and  C_3
REMARK    3  A    between atoms: C_2  and  S_16
REMARK    4  A    between atoms: N_5  and  C_6
REMARK    5  A    between atoms: S_16  and  C_19
REMARK                            x       y       z     vdW  Elec       q    Type
REMARK                         _______ _______ _______ _____ _____    ______ ____
ROOT
ATOM      1  C   UNL     1     -32.445 -10.951  19.066  0.00  0.00    +0.242 C 
ATOM      2  O   UNL     1     -32.996 -12.084  19.145  0.00  0.00    -0.273 OA
ATOM      3  N   UNL     1     -32.070 -10.416  17.787  0.00  0.00    -0.284 N 
ATOM      4  H   UNL     1     -31.925  -9.383  17.711  0.00  0.00    +0.155 HD
ENDROOT
BRANCH   3   5
ATOM      5  C   UNL     1     -31.981 -11.198  16.584  0.00  0.00    +0.037 A 
ATOM      6  C   UNL     1     -30.954 -12.149  16.456  0.00  0.00    +0.027 A 
ATOM      7  C   UNL     1     -30.853 -12.935  15.302  0.00  0.00    +0.051 A 
ATOM      8  C   UNL     1     -31.788 -12.785  14.275  0.00  0.00    +0.162 A 
ATOM      9  O   UNL     1     -31.689 -13.539  13.101  0.00  0.00    -0.485 OA
ATOM     10  C   UNL     1     -32.469 -13.212  11.948  0.00  0.00    +0.270 C 
ATOM     11  C   UNL     1     -33.877 -12.772  12.365  0.00  0.00    +0.270 C 
ATOM     12  O   UNL     1     -33.802 -11.786  13.399  0.00  0.00    -0.485 OA
ATOM     13  C   UNL     1     -32.845 -11.877  14.415  0.00  0.00    +0.164 A 
ATOM     14  C   UNL     1     -32.940 -11.079  15.559  0.00  0.00    +0.072 A 
ENDBRANCH   3   5
BRANCH   1  16
ATOM     15  C   UNL     1     -32.674 -10.921  21.553  0.00  0.00    +0.042 C 
ATOM     16  C   UNL     1     -32.221 -10.144  20.315  0.00  0.00    +0.218 C 
BRANCH  16  17
ATOM     17  S   UNL     1     -30.495  -9.680  20.450  0.00  0.00    +0.011 S 
ATOM     18  O   UNL     1     -30.226  -9.117  21.818  0.00  0.00    -0.169 OA
ATOM     19  O   UNL     1     -30.169  -8.626  19.428  0.00  0.00    -0.169 OA
BRANCH  17  20
ATOM     20  C   UNL     1     -29.479 -11.099  20.196  0.00  0.00    +0.127 A 
ATOM     21  C   UNL     1     -29.469 -12.138  21.139  0.00  0.00    +0.068 A 
ATOM     22  C   UNL     1     -28.652 -13.256  20.948  0.00  0.00    +0.125 A 
ATOM     23  F   UNL     1     -28.648 -14.258  21.861  0.00  0.00    -0.205 F 
ATOM     24  C   UNL     1     -27.836 -13.340  19.815  0.00  0.00    +0.041 A 
ATOM     25  C   UNL     1     -27.836 -12.306  18.876  0.00  0.00    +0.043 A 
ATOM     26  C   UNL     1     -28.652 -11.186  19.064  0.00  0.00    +0.148 A 
ATOM     27  F   UNL     1     -28.628 -10.186  18.146  0.00  0.00    -0.203 F 
ENDBRANCH  17  20
ENDBRANCH  16  17
ENDBRANCH   1  16
TORSDOF 4
ENDMDL
MODEL 4
REMARK VINA RESULT:    -4.606      1.748      2.648
REMARK INTER + INTRA:          -6.717
REMARK INTER:                  -5.974
REMARK INTRA:                  -0.743
REMARK UNBOUND:                -1.033
REMARK  Name = 
REMARK  5 active torsions:
REMARK  status: ('A' for Active; 'I' for Inactive)
REMARK    1  A    between atoms: C_1  and  C_2
REMARK    2  A    between atoms: C_2  and  C_3
REMARK    3  A    between atoms: C_2  and  S_16
REMARK    4  A    between atoms: N_5  and  C_6
REMARK    5  A    between atoms: S_16  and  C_19
REMARK                            x       y       z     vdW  Elec       q    Type
REMARK                         _______ _______ _______ _____ _____    ______ ____
ROOT
ATOM      1  C   UNL     1     -30.467 -10.102  18.456  0.00  0.00    +0.242 C 
ATOM      2  O   UNL     1     -29.785  -9.379  19.234  0.00  0.00    -0.273 OA
ATOM      3  N   UNL     1     -30.512 -11.525  18.641  0.00  0.00    -0.284 N 
ATOM      4  H   UNL     1     -31.308 -12.050  18.213  0.00  0.00    +0.155 HD
ENDROOT
BRANCH   3   5
ATOM      5  C   UNL     1     -29.586 -12.257  19.463  0.00  0.00    +0.037 A 
ATOM      6  C   UNL     1     -30.069 -12.973  20.571  0.00  0.00    +0.027 A 
ATOM      7  C   UNL     1     -29.193 -13.706  21.381  0.00  0.00    +0.051 A 
ATOM      8  C   UNL     1     -27.831 -13.740  21.076  0.00  0.00    +0.162 A 
ATOM      9  O   UNL     1     -26.932 -14.442  21.887  0.00  0.00    -0.485 OA
ATOM     10  C   UNL     1     -25.520 -14.268  21.745  0.00  0.00    +0.270 C 
ATOM     11  C   UNL     1     -25.148 -14.134  20.263  0.00  0.00    +0.270 C 
ATOM     12  O   UNL     1     -25.988 -13.167  19.627  0.00  0.00    -0.485 OA
ATOM     13  C   UNL     1     -27.347 -13.072  19.945  0.00  0.00    +0.164 A 
ATOM     14  C   UNL     1     -28.217 -12.325  19.144  0.00  0.00    +0.072 A 
ENDBRANCH   3   5
BRANCH   1  16
ATOM     15  C   UNL     1     -30.765  -9.909  15.983  0.00  0.00    +0.042 C 
ATOM     16  C   UNL     1     -31.267  -9.459  17.356  0.00  0.00    +0.218 C 
BRANCH  16  17
ATOM     17  S   UNL     1     -33.007  -9.840  17.556  0.00  0.00    +0.011 S 
ATOM     18  O   UNL     1     -33.678  -8.750  18.345  0.00  0.00    -0.169 OA
ATOM     19  O   UNL     1     -33.163 -11.136  18.303  0.00  0.00    -0.169 OA
BRANCH  17  20
ATOM     20  C   UNL     1     -33.772  -9.964  15.971  0.00  0.00    +0.127 A 
ATOM     21  C   UNL     1     -33.856 -11.207  15.324  0.00  0.00    +0.068 A 
ATOM     22  C   UNL     1     -34.448 -11.304  14.061  0.00  0.00    +0.125 A 
ATOM     23  F   UNL     1     -34.528 -12.507  13.440  0.00  0.00    -0.205 F 
ATOM     24  C   UNL     1     -34.954 -10.161  13.435  0.00  0.00    +0.041 A 
ATOM     25  C   UNL     1     -34.867  -8.920  14.072  0.00  0.00    +0.043 A 
ATOM     26  C   UNL     1     -34.276  -8.818  15.335  0.00  0.00    +0.148 A 
ATOM     27  F   UNL     1     -34.190  -7.601  15.931  0.00  0.00    -0.203 F 
ENDBRANCH  17  20
ENDBRANCH  16  17
ENDBRANCH   1  16
TORSDOF 4
ENDMDL
MODEL 5
REMARK VINA RESULT:    -4.481      3.323      5.926
REMARK INTER + INTRA:          -6.562
REMARK INTER:                  -5.448
REMARK INTRA:                  -1.114
REMARK UNBOUND:                -1.033
REMARK  Name = 
REMARK  5 active torsions:
REMARK  status: ('A' for Active; 'I' for Inactive)
REMARK    1  A    between atoms: C_1  and  C_2
REMARK    2  A    between atoms: C_2  and  C_3
REMARK    3  A    between atoms: C_2  and  S_16
REMARK    4  A    between atoms: N_5  and  C_6
REMARK    5  A    between atoms: S_16  and  C_19
REMARK                            x       y       z     vdW  Elec       q    Type
REMARK                         _______ _______ _______ _____ _____    ______ ____
ROOT
ATOM      1  C   UNL     1     -31.596  -9.809  17.266  0.00  0.00    +0.242 C 
ATOM      2  O   UNL     1     -30.595  -9.385  16.624  0.00  0.00    -0.273 OA
ATOM      3  N   UNL     1     -32.161 -11.094  16.963  0.00  0.00    -0.284 N 
ATOM      4  H   UNL     1     -32.754 -11.553  17.692  0.00  0.00    +0.155 HD
ENDROOT
BRANCH   3   5
ATOM      5  C   UNL     1     -31.877 -11.833  15.762  0.00  0.00    +0.037 A 
ATOM      6  C   UNL     1     -32.652 -11.601  14.614  0.00  0.00    +0.027 A 
ATOM      7  C   UNL     1     -32.390 -12.295  13.427  0.00  0.00    +0.051 A 
ATOM      8  C   UNL     1     -31.339 -13.214  13.378  0.00  0.00    +0.162 A 
ATOM      9  O   UNL     1     -31.076 -13.941  12.212  0.00  0.00    -0.485 OA
ATOM     10  C   UNL     1     -30.190 -15.062  12.226  0.00  0.00    +0.270 C 
ATOM     11  C   UNL     1     -28.994 -14.783  13.145  0.00  0.00    +0.270 C 
ATOM     12  O   UNL     1     -29.447 -14.297  14.412  0.00  0.00    -0.485 OA
ATOM     13  C   UNL     1     -30.529 -13.415  14.502  0.00  0.00    +0.164 A 
ATOM     14  C   UNL     1     -30.799 -12.735  15.694  0.00  0.00    +0.072 A 
ENDBRANCH   3   5
BRANCH   1  16
ATOM     15  C   UNL     1     -33.633  -9.345  18.636  0.00  0.00    +0.042 C 
ATOM     16  C   UNL     1     -32.170  -8.977  18.380  0.00  0.00    +0.218 C 
BRANCH  16  17
ATOM     17  S   UNL     1     -31.191  -9.179  19.868  0.00  0.00    +0.011 S 
ATOM     18  O   UNL     1     -32.084  -9.112  21.076  0.00  0.00    -0.169 OA
ATOM     19  O   UNL     1     -30.175  -8.075  19.964  0.00  0.00    -0.169 OA
BRANCH  17  20
ATOM     20  C   UNL     1     -30.379 -10.744  19.834  0.00  0.00    +0.127 A 
ATOM     21  C   UNL     1     -29.041 -10.836  19.418  0.00  0.00    +0.068 A 
ATOM     22  C   UNL     1     -28.400 -12.078  19.376  0.00  0.00    +0.125 A 
ATOM     23  F   UNL     1     -27.108 -12.161  18.974  0.00  0.00    -0.205 F 
ATOM     24  C   UNL     1     -29.093 -13.235  19.743  0.00  0.00    +0.041 A 
ATOM     25  C   UNL     1     -30.426 -13.151  20.152  0.00  0.00    +0.043 A 
ATOM     26  C   UNL     1     -31.071 -11.912  20.196  0.00  0.00    +0.148 A 
ATOM     27  F   UNL     1     -32.371 -11.853  20.584  0.00  0.00    -0.203 F 
ENDBRANCH  17  20
ENDBRANCH  16  17
ENDBRANCH   1  16
TORSDOF 4
ENDMDL
MODEL 6
REMARK VINA RESULT:    -4.478      2.591      3.176
REMARK INTER + INTRA:          -6.558
REMARK INTER:                  -6.218
REMARK INTRA:                  -0.340
REMARK UNBOUND:                -1.033
REMARK  Name = 
REMARK  5 active torsions:
REMARK  status: ('A' for Active; 'I' for Inactive)
REMARK    1  A    between atoms: C_1  and  C_2
REMARK    2  A    between atoms: C_2  and  C_3
REMARK    3  A    between atoms: C_2  and  S_16
REMARK    4  A    between atoms: N_5  and  C_6
REMARK    5  A    between atoms: S_16  and  C_19
REMARK                            x       y       z     vdW  Elec       q    Type
REMARK                         _______ _______ _______ _____ _____    ______ ____
ROOT
ATOM      1  C   UNL     1     -31.480 -10.589  17.570  0.00  0.00    +0.242 C 
ATOM      2  O   UNL     1     -30.587 -10.041  16.866  0.00  0.00    -0.273 OA
ATOM      3  N   UNL     1     -31.121 -11.347  18.736  0.00  0.00    -0.284 N 
ATOM      4  H   UNL     1     -31.856 -11.508  19.461  0.00  0.00    +0.155 HD
ENDROOT
BRANCH   3   5
ATOM      5  C   UNL     1     -29.788 -11.810  19.012  0.00  0.00    +0.037 A 
ATOM      6  C   UNL     1     -28.712 -11.291  18.273  0.00  0.00    +0.027 A 
ATOM      7  C   UNL     1     -27.403 -11.713  18.531  0.00  0.00    +0.051 A 
ATOM      8  C   UNL     1     -27.160 -12.646  19.541  0.00  0.00    +0.162 A 
ATOM      9  O   UNL     1     -25.863 -13.105  19.797  0.00  0.00    -0.485 OA
ATOM     10  C   UNL     1     -25.635 -14.242  20.633  0.00  0.00    +0.270 C 
ATOM     11  C   UNL     1     -26.607 -14.232  21.820  0.00  0.00    +0.270 C 
ATOM     12  O   UNL     1     -27.946 -14.022  21.361  0.00  0.00    -0.485 OA
ATOM     13  C   UNL     1     -28.219 -13.132  20.317  0.00  0.00    +0.164 A 
ATOM     14  C   UNL     1     -29.531 -12.725  20.052  0.00  0.00    +0.072 A 
ENDBRANCH   3   5
BRANCH   1  16
ATOM     15  C   UNL     1     -33.217  -8.952  16.832  0.00  0.00    +0.042 C 
ATOM     16  C   UNL     1     -32.929 -10.407  17.206  0.00  0.00    +0.218 C 
BRANCH  16  17
ATOM     17  S   UNL     1     -33.371 -11.510  15.865  0.00  0.00    +0.011 S 
ATOM     18  O   UNL     1     -33.493 -10.730  14.586  0.00  0.00    -0.169 OA
ATOM     19  O   UNL     1     -34.696 -12.160  16.156  0.00  0.00    -0.169 OA
BRANCH  17  20
ATOM     20  C   UNL     1     -32.124 -12.743  15.676  0.00  0.00    +0.127 A 
ATOM     21  C   UNL     1     -31.290 -12.736  14.547  0.00  0.00    +0.068 A 
ATOM     22  C   UNL     1     -30.312 -13.721  14.387  0.00  0.00    +0.125 A 
ATOM     23  F   UNL     1     -29.509 -13.710  13.295  0.00  0.00    -0.205 F 
ATOM     24  C   UNL     1     -30.163 -14.722  15.352  0.00  0.00    +0.041 A 
ATOM     25  C   UNL     1     -30.994 -14.738  16.475  0.00  0.00    +0.043 A 
ATOM     26  C   UNL     1     -31.975 -13.755  16.639  0.00  0.00    +0.148 A 
ATOM     27  F   UNL     1     -32.780 -13.796  17.730  0.00  0.00    -0.203 F 
ENDBRANCH  17  20
ENDBRANCH  16  17
ENDBRANCH   1  16
TORSDOF 4
ENDMDL
MODEL 7
REMARK VINA RESULT:    -4.412      2.579      3.943
REMARK INTER + INTRA:          -6.478
REMARK INTER:                  -5.382
REMARK INTRA:                  -1.096
REMARK UNBOUND:                -1.033
REMARK  Name = 
REMARK  5 active torsions:
REMARK  status: ('A' for Active; 'I' for Inactive)
REMARK    1  A    between atoms: C_1  and  C_2
REMARK    2  A    between atoms: C_2  and  C_3
REMARK    3  A    between atoms: C_2  and  S_16
REMARK    4  A    between atoms: N_5  and  C_6
REMARK    5  A    between atoms: S_16  and  C_19
REMARK                            x       y       z     vdW  Elec       q    Type
REMARK                         _______ _______ _______ _____ _____    ______ ____
ROOT
ATOM      1  C   UNL     1     -30.895 -12.256  16.195  0.00  0.00    +0.242 C 
ATOM      2  O   UNL     1     -30.402 -13.380  15.898  0.00  0.00    -0.273 OA
ATOM      3  N   UNL     1     -30.506 -11.590  17.406  0.00  0.00    -0.284 N 
ATOM      4  H   UNL     1     -30.664 -10.559  17.471  0.00  0.00    +0.155 HD
ENDROOT
BRANCH   3   5
ATOM      5  C   UNL     1     -29.820 -12.237  18.493  0.00  0.00    +0.037 A 
ATOM      6  C   UNL     1     -30.569 -12.835  19.520  0.00  0.00    +0.027 A 
ATOM      7  C   UNL     1     -29.929 -13.483  20.582  0.00  0.00    +0.051 A 
ATOM      8  C   UNL     1     -28.534 -13.550  20.615  0.00  0.00    +0.162 A 
ATOM      9  O   UNL     1     -27.871 -14.167  21.681  0.00  0.00    -0.485 OA
ATOM     10  C   UNL     1     -26.462 -14.012  21.862  0.00  0.00    +0.270 C 
ATOM     11  C   UNL     1     -25.746 -14.031  20.505  0.00  0.00    +0.270 C 
ATOM     12  O   UNL     1     -26.387 -13.132  19.595  0.00  0.00    -0.485 OA
ATOM     13  C   UNL     1     -27.780 -13.002  19.570  0.00  0.00    +0.164 A 
ATOM     14  C   UNL     1     -28.416 -12.339  18.515  0.00  0.00    +0.072 A 
ENDBRANCH   3   5
BRANCH   1  16
ATOM     15  C   UNL     1     -31.928 -12.354  13.922  0.00  0.00    +0.042 C 
ATOM     16  C   UNL     1     -31.864 -11.598  15.251  0.00  0.00    +0.218 C 
BRANCH  16  17
ATOM     17  S   UNL     1     -33.486 -11.493  16.004  0.00  0.00    +0.011 S 
ATOM     18  O   UNL     1     -33.401 -11.898  17.450  0.00  0.00    -0.169 OA
ATOM     19  O   UNL     1     -34.436 -12.424  15.302  0.00  0.00    -0.169 OA
BRANCH  17  20
ATOM     20  C   UNL     1     -34.081  -9.836  15.900  0.00  0.00    +0.127 A 
ATOM     21  C   UNL     1     -34.187  -9.050  17.058  0.00  0.00    +0.068 A 
ATOM     22  C   UNL     1     -34.673  -7.741  16.980  0.00  0.00    +0.125 A 
ATOM     23  F   UNL     1     -34.772  -6.986  18.101  0.00  0.00    -0.205 F 
ATOM     24  C   UNL     1     -35.062  -7.212  15.745  0.00  0.00    +0.041 A 
ATOM     25  C   UNL     1     -34.966  -7.992  14.590  0.00  0.00    +0.043 A 
ATOM     26  C   UNL     1     -34.480  -9.301  14.663  0.00  0.00    +0.148 A 
ATOM     27  F   UNL     1     -34.406 -10.046  13.532  0.00  0.00    -0.203 F 
ENDBRANCH  17  20
ENDBRANCH  16  17
ENDBRANCH   1  16
TORSDOF 4
ENDMDL
MODEL 8
REMARK VINA RESULT:    -4.408      3.421      6.200
REMARK INTER + INTRA:          -6.473
REMARK INTER:                  -5.461
REMARK INTRA:                  -1.012
REMARK UNBOUND:                -1.033
REMARK  Name = 
REMARK  5 active torsions:
REMARK  status: ('A' for Active; 'I' for Inactive)
REMARK    1  A    between atoms: C_1  and  C_2
REMARK    2  A    between atoms: C_2  and  C_3
REMARK    3  A    between atoms: C_2  and  S_16
REMARK    4  A    between atoms: N_5  and  C_6
REMARK    5  A    between atoms: S_16  and  C_19
REMARK                            x       y       z     vdW  Elec       q    Type
REMARK                         _______ _______ _______ _____ _____    ______ ____
ROOT
ATOM      1  C   UNL     1     -28.864 -13.562  18.576  0.00  0.00    +0.242 C 
ATOM      2  O   UNL     1     -27.934 -13.065  17.883  0.00  0.00    -0.273 OA
ATOM      3  N   UNL     1     -29.956 -14.244  17.941  0.00  0.00    -0.284 N 
ATOM      4  H   UNL     1     -30.521 -14.909  18.518  0.00  0.00    +0.155 HD
ENDROOT
BRANCH   3   5
ATOM      5  C   UNL     1     -30.257 -14.147  16.538  0.00  0.00    +0.037 A 
ATOM      6  C   UNL     1     -29.438 -14.814  15.611  0.00  0.00    +0.027 A 
ATOM      7  C   UNL     1     -29.716 -14.748  14.241  0.00  0.00    +0.051 A 
ATOM      8  C   UNL     1     -30.824 -14.027  13.791  0.00  0.00    +0.162 A 
ATOM      9  O   UNL     1     -31.104 -13.923  12.424  0.00  0.00    -0.485 OA
ATOM     10  C   UNL     1     -32.064 -12.982  11.938  0.00  0.00    +0.270 C 
ATOM     11  C   UNL     1     -33.261 -12.903  12.892  0.00  0.00    +0.270 C 
ATOM     12  O   UNL     1     -32.810 -12.733  14.239  0.00  0.00    -0.485 OA
ATOM     13  C   UNL     1     -31.675 -13.402  14.710  0.00  0.00    +0.164 A 
ATOM     14  C   UNL     1     -31.391 -13.451  16.078  0.00  0.00    +0.072 A 
ENDBRANCH   3   5
BRANCH   1  16
ATOM     15  C   UNL     1     -27.374 -13.709  20.576  0.00  0.00    +0.042 C 
ATOM     16  C   UNL     1     -28.801 -13.474  20.077  0.00  0.00    +0.218 C 
BRANCH  16  17
ATOM     17  S   UNL     1     -29.415 -11.883  20.628  0.00  0.00    +0.011 S 
ATOM     18  O   UNL     1     -28.267 -10.927  20.797  0.00  0.00    -0.169 OA
ATOM     19  O   UNL     1     -30.108 -12.036  21.954  0.00  0.00    -0.169 OA
BRANCH  17  20
ATOM     20  C   UNL     1     -30.539 -11.236  19.433  0.00  0.00    +0.127 A 
ATOM     21  C   UNL     1     -30.072 -10.402  18.404  0.00  0.00    +0.068 A 
ATOM     22  C   UNL     1     -30.964  -9.875  17.465  0.00  0.00    +0.125 A 
ATOM     23  F   UNL     1     -30.508  -9.071  16.473  0.00  0.00    -0.205 F 
ATOM     24  C   UNL     1     -32.327 -10.173  17.551  0.00  0.00    +0.041 A 
ATOM     25  C   UNL     1     -32.799 -10.997  18.576  0.00  0.00    +0.043 A 
ATOM     26  C   UNL     1     -31.911 -11.526  19.518  0.00  0.00    +0.148 A 
ATOM     27  F   UNL     1     -32.391 -12.314  20.513  0.00  0.00    -0.203 F 
ENDBRANCH  17  20
ENDBRANCH  16  17
ENDBRANCH   1  16
TORSDOF 4
ENDMDL
MODEL 9
REMARK VINA RESULT:    -4.371      3.119      6.428
REMARK INTER + INTRA:          -6.427
REMARK INTER:                  -5.178
REMARK INTRA:                  -1.249
REMARK UNBOUND:                -1.033
REMARK  Name = 
REMARK  5 active torsions:
REMARK  status: ('A' for Active; 'I' for Inactive)
REMARK    1  A    between atoms: C_1  and  C_2
REMARK    2  A    between atoms: C_2  and  C_3
REMARK    3  A    between atoms: C_2  and  S_16
REMARK    4  A    between atoms: N_5  and  C_6
REMARK    5  A    between atoms: S_16  and  C_19
REMARK                            x       y       z     vdW  Elec       q    Type
REMARK                         _______ _______ _______ _____ _____    ______ ____
ROOT
ATOM      1  C   UNL     1     -32.237  -9.383  18.003  0.00  0.00    +0.242 C 
ATOM      2  O   UNL     1     -33.346  -9.983  18.073  0.00  0.00    -0.273 OA
ATOM      3  N   UNL     1     -31.390  -9.556  16.857  0.00  0.00    -0.284 N 
ATOM      4  H   UNL     1     -30.662  -8.829  16.670  0.00  0.00    +0.155 HD
ENDROOT
BRANCH   3   5
ATOM      5  C   UNL     1     -31.548 -10.613  15.894  0.00  0.00    +0.037 A 
ATOM      6  C   UNL     1     -30.751 -11.765  16.000  0.00  0.00    +0.027 A 
ATOM      7  C   UNL     1     -30.894 -12.815  15.086  0.00  0.00    +0.051 A 
ATOM      8  C   UNL     1     -31.847 -12.725  14.068  0.00  0.00    +0.162 A 
ATOM      9  O   UNL     1     -31.987 -13.749  13.125  0.00  0.00    -0.485 OA
ATOM     10  C   UNL     1     -32.760 -13.557  11.938  0.00  0.00    +0.270 C 
ATOM     11  C   UNL     1     -34.015 -12.732  12.248  0.00  0.00    +0.270 C 
ATOM     12  O   UNL     1     -33.666 -11.561  12.993  0.00  0.00    -0.485 OA
ATOM     13  C   UNL     1     -32.681 -11.603  13.985  0.00  0.00    +0.164 A 
ATOM     14  C   UNL     1     -32.530 -10.545  14.887  0.00  0.00    +0.072 A 
ENDBRANCH   3   5
BRANCH   1  16
ATOM     15  C   UNL     1     -32.957  -7.480  19.453  0.00  0.00    +0.042 C 
ATOM     16  C   UNL     1     -31.825  -8.451  19.110  0.00  0.00    +0.218 C 
BRANCH  16  17
ATOM     17  S   UNL     1     -31.330  -9.389  20.555  0.00  0.00    +0.011 S 
ATOM     18  O   UNL     1     -32.546  -9.769  21.354  0.00  0.00    -0.169 OA
ATOM     19  O   UNL     1     -30.431  -8.552  21.423  0.00  0.00    -0.169 OA
BRANCH  17  20
ATOM     20  C   UNL     1     -30.487 -10.853  20.050  0.00  0.00    +0.127 A 
ATOM     21  C   UNL     1     -29.158 -10.784  19.604  0.00  0.00    +0.068 A 
ATOM     22  C   UNL     1     -28.493 -11.941  19.188  0.00  0.00    +0.125 A 
ATOM     23  F   UNL     1     -27.209 -11.869  18.759  0.00  0.00    -0.205 F 
ATOM     24  C   UNL     1     -29.152 -13.173  19.211  0.00  0.00    +0.041 A 
ATOM     25  C   UNL     1     -30.478 -13.248  19.648  0.00  0.00    +0.043 A 
ATOM     26  C   UNL     1     -31.147 -12.093  20.064  0.00  0.00    +0.148 A 
ATOM     27  F   UNL     1     -32.438 -12.185  20.473  0.00  0.00    -0.203 F 
ENDBRANCH  17  20
ENDBRANCH  16  17
ENDBRANCH   1  16
TORSDOF 4
ENDMDL
