MODEL 1
REMARK VINA RESULT:    -4.382      0.000      0.000
REMARK INTER + INTRA:          -7.506
REMARK INTER:                  -6.304
REMARK INTRA:                  -1.202
REMARK UNBOUND:                -1.202
REMARK  Name = 
REMARK  10 active torsions:
REMARK  status: ('A' for Active; 'I' for Inactive)
REMARK    1  A    between atoms: C_1  and  O_2
REMARK    2  A    between atoms: O_2  and  C_3
REMARK    3  A    between atoms: C_6  and  C_7
REMARK    4  A    between atoms: C_8  and  C_9
REMARK    5  A    between atoms: C_8  and  C_14
REMARK    6  A    between atoms: C_9  and  C_10
REMARK    7  A    between atoms: C_10  and  C_11
REMARK    8  A    between atoms: C_11  and  O_13
REMARK    9  A    between atoms: C_23  and  O_25
REMARK   10  A    between atoms: O_25  and  C_26
REMARK                            x       y       z     vdW  Elec       q    Type
REMARK                         _______ _______ _______ _____ _____    ______ ____
ROOT
ATOM      1  C   UNL     1     -31.107 -12.972  17.364  0.00  0.00    +0.017 C 
ATOM      2  C   UNL     1     -30.216 -12.153  17.961  0.00  0.00    -0.014 C 
ENDROOT
BRANCH   2   3
ATOM      3  C   UNL     1     -29.250 -12.699  18.949  0.00  0.00    +0.106 A 
ATOM      4  N   UNL     1     -27.916 -12.781  18.707  0.00  0.00    -0.239 NA
ATOM      5  C   UNL     1     -27.250 -13.312  19.765  0.00  0.00    +0.079 A 
ATOM      6  C   UNL     1     -25.871 -13.518  19.805  0.00  0.00    +0.029 A 
ATOM      7  C   UNL     1     -25.305 -14.077  20.964  0.00  0.00    +0.002 A 
ATOM      8  C   UNL     1     -26.119 -14.421  22.061  0.00  0.00    +0.001 A 
ATOM      9  C   UNL     1     -27.507 -14.208  22.010  0.00  0.00    +0.017 A 
ATOM     10  C   UNL     1     -28.040 -13.653  20.850  0.00  0.00    +0.040 A 
ATOM     11  S   UNL     1     -29.637 -13.286  20.498  0.00  0.00    -0.067 S 
ENDBRANCH   2   3
BRANCH   1  15
ATOM     12  C   UNL     1     -33.931 -11.743  14.378  0.00  0.00    +0.124 A 
ATOM     13  C   UNL     1     -34.265 -11.701  15.734  0.00  0.00    +0.046 A 
ATOM     14  C   UNL     1     -33.345 -12.099  16.704  0.00  0.00    +0.015 A 
ATOM     15  C   UNL     1     -32.065 -12.533  16.331  0.00  0.00    +0.017 A 
ATOM     16  C   UNL     1     -31.716 -12.599  14.971  0.00  0.00    +0.131 A 
ATOM     17  C   UNL     1     -32.653 -12.196  13.997  0.00  0.00    +0.091 A 
BRANCH  12  19
ATOM     18  C   UNL     1     -35.043  -9.990  12.983  0.00  0.00    +0.277 C 
ATOM     19  O   UNL     1     -34.892 -11.329  13.443  0.00  0.00    -0.495 OA
ENDBRANCH  12  19
BRANCH  16  20
ATOM     20  O   UNL     1     -30.433 -13.058  14.625  0.00  0.00    -0.494 OA
ATOM     21  C   UNL     1     -30.166 -14.037  13.628  0.00  0.00    +0.277 C 
ENDBRANCH  16  20
ENDBRANCH   1  15
BRANCH   2  22
ATOM     22  C   UNL     1     -30.083 -10.696  17.558  0.00  0.00    +0.049 C 
BRANCH  22  23
ATOM     23  C   UNL     1     -30.108  -9.789  18.792  0.00  0.00    +0.125 C 
BRANCH  23  24
ATOM     24  C   UNL     1     -31.385  -9.011  18.843  0.00  0.00    +0.305 C 
ATOM     25  O   UNL     1     -31.951  -8.797  19.948  0.00  0.00    -0.251 OA
BRANCH  24  26
ATOM     26  O   UNL     1     -31.922  -8.486  17.672  0.00  0.00    -0.481 OA
ATOM     27  H   UNL     1     -31.533  -7.650  17.252  0.00  0.00    +0.295 HD
ENDBRANCH  24  26
ENDBRANCH  23  24
ENDBRANCH  22  23
ENDBRANCH   2  22
TORSDOF 8
ENDMDL
MODEL 2
REMARK VINA RESULT:    -4.331      2.784      8.242
REMARK INTER + INTRA:          -7.432
REMARK INTER:                  -7.122
REMARK INTRA:                  -0.310
REMARK UNBOUND:                -1.202
REMARK  Name = 
REMARK  10 active torsions:
REMARK  status: ('A' for Active; 'I' for Inactive)
REMARK    1  A    between atoms: C_1  and  O_2
REMARK    2  A    between atoms: O_2  and  C_3
REMARK    3  A    between atoms: C_6  and  C_7
REMARK    4  A    between atoms: C_8  and  C_9
REMARK    5  A    between atoms: C_8  and  C_14
REMARK    6  A    between atoms: C_9  and  C_10
REMARK    7  A    between atoms: C_10  and  C_11
REMARK    8  A    between atoms: C_11  and  O_13
REMARK    9  A    between atoms: C_23  and  O_25
REMARK   10  A    between atoms: O_25  and  C_26
REMARK                            x       y       z     vdW  Elec       q    Type
REMARK                         _______ _______ _______ _____ _____    ______ ____
ROOT
ATOM      1  C   UNL     1     -30.405 -11.907  17.746  0.00  0.00    +0.017 C 
ATOM      2  C   UNL     1     -31.033 -12.763  16.913  0.00  0.00    -0.014 C 
ENDROOT
BRANCH   2   3
ATOM      3  C   UNL     1     -31.976 -12.245  15.888  0.00  0.00    +0.106 A 
ATOM      4  N   UNL     1     -32.107 -12.805  14.658  0.00  0.00    -0.239 NA
ATOM      5  C   UNL     1     -33.033 -12.151  13.909  0.00  0.00    +0.079 A 
ATOM      6  C   UNL     1     -33.380 -12.501  12.603  0.00  0.00    +0.029 A 
ATOM      7  C   UNL     1     -34.357 -11.740  11.938  0.00  0.00    +0.002 A 
ATOM      8  C   UNL     1     -34.971 -10.647  12.581  0.00  0.00    +0.001 A 
ATOM      9  C   UNL     1     -34.614 -10.305  13.896  0.00  0.00    +0.017 A 
ATOM     10  C   UNL     1     -33.644 -11.076  14.531  0.00  0.00    +0.040 A 
ATOM     11  S   UNL     1     -33.019 -10.914  16.078  0.00  0.00    -0.067 S 
ENDBRANCH   2   3
BRANCH   1  15
ATOM     12  C   UNL     1     -27.500 -13.160  20.643  0.00  0.00    +0.124 A 
ATOM     13  C   UNL     1     -27.103 -12.749  19.368  0.00  0.00    +0.046 A 
ATOM     14  C   UNL     1     -28.049 -12.340  18.428  0.00  0.00    +0.015 A 
ATOM     15  C   UNL     1     -29.412 -12.321  18.755  0.00  0.00    +0.017 A 
ATOM     16  C   UNL     1     -29.833 -12.749  20.027  0.00  0.00    +0.131 A 
ATOM     17  C   UNL     1     -28.870 -13.162  20.970  0.00  0.00    +0.091 A 
BRANCH  12  19
ATOM     18  C   UNL     1     -25.343 -14.298  21.198  0.00  0.00    +0.277 C 
ATOM     19  O   UNL     1     -26.508 -13.559  21.551  0.00  0.00    -0.495 OA
ENDBRANCH  12  19
BRANCH  16  20
ATOM     20  O   UNL     1     -31.207 -12.741  20.320  0.00  0.00    -0.494 OA
ATOM     21  C   UNL     1     -31.878 -11.700  21.022  0.00  0.00    +0.277 C 
ENDBRANCH  16  20
ENDBRANCH   1  15
BRANCH   2  22
ATOM     22  C   UNL     1     -30.709 -14.245  16.905  0.00  0.00    +0.049 C 
BRANCH  22  23
ATOM     23  C   UNL     1     -30.481 -14.742  15.474  0.00  0.00    +0.125 C 
BRANCH  23  24
ATOM     24  C   UNL     1     -29.048 -14.569  15.083  0.00  0.00    +0.305 C 
ATOM     25  O   UNL     1     -28.746 -14.304  13.888  0.00  0.00    -0.251 OA
BRANCH  24  26
ATOM     26  O   UNL     1     -28.051 -14.659  16.050  0.00  0.00    -0.481 OA
ATOM     27  H   UNL     1     -28.179 -15.232  16.875  0.00  0.00    +0.295 HD
ENDBRANCH  24  26
ENDBRANCH  23  24
ENDBRANCH  22  23
ENDBRANCH   2  22
TORSDOF 8
ENDMDL
MODEL 3
REMARK VINA RESULT:    -4.029      1.930      3.927
REMARK INTER + INTRA:          -6.997
REMARK INTER:                  -5.802
REMARK INTRA:                  -1.195
REMARK UNBOUND:                -1.202
REMARK  Name = 
REMARK  10 active torsions:
REMARK  status: ('A' for Active; 'I' for Inactive)
REMARK    1  A    between atoms: C_1  and  O_2
REMARK    2  A    between atoms: O_2  and  C_3
REMARK    3  A    between atoms: C_6  and  C_7
REMARK    4  A    between atoms: C_8  and  C_9
REMARK    5  A    between atoms: C_8  and  C_14
REMARK    6  A    between atoms: C_9  and  C_10
REMARK    7  A    between atoms: C_10  and  C_11
REMARK    8  A    between atoms: C_11  and  O_13
REMARK    9  A    between atoms: C_23  and  O_25
REMARK   10  A    between atoms: O_25  and  C_26
REMARK                            x       y       z     vdW  Elec       q    Type
REMARK                         _______ _______ _______ _____ _____    ______ ____
ROOT
ATOM      1  C   UNL     1     -30.710 -10.902  18.594  0.00  0.00    +0.017 C 
ATOM      2  C   UNL     1     -30.494 -12.234  18.635  0.00  0.00    -0.014 C 
ENDROOT
BRANCH   2   3
ATOM      3  C   UNL     1     -29.364 -12.780  19.430  0.00  0.00    +0.106 A 
ATOM      4  N   UNL     1     -28.071 -12.703  19.020  0.00  0.00    -0.239 NA
ATOM      5  C   UNL     1     -27.228 -13.271  19.921  0.00  0.00    +0.079 A 
ATOM      6  C   UNL     1     -25.843 -13.342  19.768  0.00  0.00    +0.029 A 
ATOM      7  C   UNL     1     -25.083 -13.959  20.778  0.00  0.00    +0.002 A 
ATOM      8  C   UNL     1     -25.714 -14.492  21.920  0.00  0.00    +0.001 A 
ATOM      9  C   UNL     1     -27.109 -14.414  22.062  0.00  0.00    +0.017 A 
ATOM     10  C   UNL     1     -27.836 -13.799  21.047  0.00  0.00    +0.040 A 
ATOM     11  S   UNL     1     -29.491 -13.559  20.937  0.00  0.00    -0.067 S 
ENDBRANCH   2   3
BRANCH   1  15
ATOM     12  C   UNL     1     -33.949  -9.023  16.504  0.00  0.00    +0.124 A 
ATOM     13  C   UNL     1     -32.807  -9.440  15.818  0.00  0.00    +0.046 A 
ATOM     14  C   UNL     1     -31.755 -10.053  16.499  0.00  0.00    +0.015 A 
ATOM     15  C   UNL     1     -31.837 -10.272  17.881  0.00  0.00    +0.017 A 
ATOM     16  C   UNL     1     -32.971  -9.843  18.593  0.00  0.00    +0.131 A 
ATOM     17  C   UNL     1     -34.029  -9.223  17.896  0.00  0.00    +0.091 A 
BRANCH  12  19
ATOM     18  C   UNL     1     -34.787  -7.356  14.838  0.00  0.00    +0.277 C 
ATOM     19  O   UNL     1     -34.980  -8.414  15.771  0.00  0.00    -0.495 OA
ENDBRANCH  12  19
BRANCH  16  20
ATOM     20  O   UNL     1     -33.017 -10.056  19.981  0.00  0.00    -0.494 OA
ATOM     21  C   UNL     1     -34.004  -9.513  20.850  0.00  0.00    +0.277 C 
ENDBRANCH  16  20
ENDBRANCH   1  15
BRANCH   2  22
ATOM     22  C   UNL     1     -31.457 -13.213  17.990  0.00  0.00    +0.049 C 
BRANCH  22  23
ATOM     23  C   UNL     1     -30.697 -14.393  17.376  0.00  0.00    +0.125 C 
BRANCH  23  24
ATOM     24  C   UNL     1     -29.742 -13.912  16.330  0.00  0.00    +0.305 C 
ATOM     25  O   UNL     1     -30.167 -13.268  15.334  0.00  0.00    -0.251 OA
BRANCH  24  26
ATOM     26  O   UNL     1     -28.378 -14.140  16.482  0.00  0.00    -0.481 OA
ATOM     27  H   UNL     1     -28.031 -15.052  16.753  0.00  0.00    +0.295 HD
ENDBRANCH  24  26
ENDBRANCH  23  24
ENDBRANCH  22  23
ENDBRANCH   2  22
TORSDOF 8
ENDMDL
MODEL 4
REMARK VINA RESULT:    -3.995      3.095      5.739
REMARK INTER + INTRA:          -6.948
REMARK INTER:                  -5.806
REMARK INTRA:                  -1.142
REMARK UNBOUND:                -1.202
REMARK  Name = 
REMARK  10 active torsions:
REMARK  status: ('A' for Active; 'I' for Inactive)
REMARK    1  A    between atoms: C_1  and  O_2
REMARK    2  A    between atoms: O_2  and  C_3
REMARK    3  A    between atoms: C_6  and  C_7
REMARK    4  A    between atoms: C_8  and  C_9
REMARK    5  A    between atoms: C_8  and  C_14
REMARK    6  A    between atoms: C_9  and  C_10
REMARK    7  A    between atoms: C_10  and  C_11
REMARK    8  A    between atoms: C_11  and  O_13
REMARK    9  A    between atoms: C_23  and  O_25
REMARK   10  A    between atoms: O_25  and  C_26
REMARK                            x       y       z     vdW  Elec       q    Type
REMARK                         _______ _______ _______ _____ _____    ______ ____
ROOT
ATOM      1  C   UNL     1     -31.985 -12.387  16.703  0.00  0.00    +0.017 C 
ATOM      2  C   UNL     1     -31.499 -11.295  17.329  0.00  0.00    -0.014 C 
ENDROOT
BRANCH   2   3
ATOM      3  C   UNL     1     -32.244 -10.698  18.468  0.00  0.00    +0.106 A 
ATOM      4  N   UNL     1     -32.733  -9.431  18.445  0.00  0.00    -0.239 NA
ATOM      5  C   UNL     1     -33.375  -9.124  19.602  0.00  0.00    +0.079 A 
ATOM      6  C   UNL     1     -33.978  -7.894  19.866  0.00  0.00    +0.029 A 
ATOM      7  C   UNL     1     -34.611  -7.705  21.107  0.00  0.00    +0.002 A 
ATOM      8  C   UNL     1     -34.633  -8.741  22.062  0.00  0.00    +0.001 A 
ATOM      9  C   UNL     1     -34.023  -9.976  21.785  0.00  0.00    +0.017 A 
ATOM     10  C   UNL     1     -33.404 -10.135  20.548  0.00  0.00    +0.040 A 
ATOM     11  S   UNL     1     -32.603 -11.475  19.939  0.00  0.00    -0.067 S 
ENDBRANCH   2   3
BRANCH   1  15
ATOM     12  C   UNL     1     -29.912 -14.381  13.522  0.00  0.00    +0.124 A 
ATOM     13  C   UNL     1     -29.599 -14.654  14.855  0.00  0.00    +0.046 A 
ATOM     14  C   UNL     1     -30.276 -14.006  15.889  0.00  0.00    +0.015 A 
ATOM     15  C   UNL     1     -31.290 -13.082  15.603  0.00  0.00    +0.017 A 
ATOM     16  C   UNL     1     -31.607 -12.780  14.266  0.00  0.00    +0.131 A 
ATOM     17  C   UNL     1     -30.917 -13.438  13.228  0.00  0.00    +0.091 A 
BRANCH  12  19
ATOM     18  C   UNL     1     -27.823 -14.857  12.229  0.00  0.00    +0.277 C 
ATOM     19  O   UNL     1     -29.202 -15.061  12.520  0.00  0.00    -0.495 OA
ENDBRANCH  12  19
BRANCH  16  20
ATOM     20  O   UNL     1     -32.614 -11.834  14.009  0.00  0.00    -0.494 OA
ATOM     21  C   UNL     1     -33.836 -12.117  13.338  0.00  0.00    +0.277 C 
ENDBRANCH  16  20
ENDBRANCH   1  15
BRANCH   2  22
ATOM     22  C   UNL     1     -30.137 -10.722  16.984  0.00  0.00    +0.049 C 
BRANCH  22  23
ATOM     23  C   UNL     1     -29.316 -10.476  18.252  0.00  0.00    +0.125 C 
BRANCH  23  24
ATOM     24  C   UNL     1     -28.125 -11.380  18.288  0.00  0.00    +0.305 C 
ATOM     25  O   UNL     1     -26.963 -10.898  18.216  0.00  0.00    -0.251 OA
BRANCH  24  26
ATOM     26  O   UNL     1     -28.301 -12.751  18.444  0.00  0.00    -0.481 OA
ATOM     27  H   UNL     1     -29.225 -13.142  18.584  0.00  0.00    +0.295 HD
ENDBRANCH  24  26
ENDBRANCH  23  24
ENDBRANCH  22  23
ENDBRANCH   2  22
TORSDOF 8
ENDMDL
MODEL 5
REMARK VINA RESULT:    -3.830      3.354      5.887
REMARK INTER + INTRA:          -6.712
REMARK INTER:                  -5.377
REMARK INTRA:                  -1.335
REMARK UNBOUND:                -1.202
REMARK  Name = 
REMARK  10 active torsions:
REMARK  status: ('A' for Active; 'I' for Inactive)
REMARK    1  A    between atoms: C_1  and  O_2
REMARK    2  A    between atoms: O_2  and  C_3
REMARK    3  A    between atoms: C_6  and  C_7
REMARK    4  A    between atoms: C_8  and  C_9
REMARK    5  A    between atoms: C_8  and  C_14
REMARK    6  A    between atoms: C_9  and  C_10
REMARK    7  A    between atoms: C_10  and  C_11
REMARK    8  A    between atoms: C_11  and  O_13
REMARK    9  A    between atoms: C_23  and  O_25
REMARK   10  A    between atoms: O_25  and  C_26
REMARK                            x       y       z     vdW  Elec       q    Type
REMARK                         _______ _______ _______ _____ _____    ______ ____
ROOT
ATOM      1  C   UNL     1     -30.753 -10.415  17.373  0.00  0.00    +0.017 C 
ATOM      2  C   UNL     1     -31.591 -10.334  18.429  0.00  0.00    -0.014 C 
ENDROOT
BRANCH   2   3
ATOM      3  C   UNL     1     -31.725  -9.056  19.175  0.00  0.00    +0.106 A 
ATOM      4  N   UNL     1     -30.750  -8.572  19.987  0.00  0.00    -0.239 NA
ATOM      5  C   UNL     1     -31.113  -7.391  20.551  0.00  0.00    +0.079 A 
ATOM      6  C   UNL     1     -30.314  -6.660  21.431  0.00  0.00    +0.029 A 
ATOM      7  C   UNL     1     -30.809  -5.448  21.944  0.00  0.00    +0.002 A 
ATOM      8  C   UNL     1     -32.088  -4.986  21.574  0.00  0.00    +0.001 A 
ATOM      9  C   UNL     1     -32.883  -5.730  20.687  0.00  0.00    +0.017 A 
ATOM     10  C   UNL     1     -32.367  -6.926  20.194  0.00  0.00    +0.040 A 
ATOM     11  S   UNL     1     -33.071  -8.017  19.134  0.00  0.00    -0.067 S 
ENDBRANCH   2   3
BRANCH   1  15
ATOM     12  C   UNL     1     -30.356 -13.934  14.954  0.00  0.00    +0.124 A 
ATOM     13  C   UNL     1     -31.189 -12.886  14.554  0.00  0.00    +0.046 A 
ATOM     14  C   UNL     1     -31.315 -11.741  15.341  0.00  0.00    +0.015 A 
ATOM     15  C   UNL     1     -30.595 -11.621  16.538  0.00  0.00    +0.017 A 
ATOM     16  C   UNL     1     -29.767 -12.673  16.967  0.00  0.00    +0.131 A 
ATOM     17  C   UNL     1     -29.646 -13.827  16.165  0.00  0.00    +0.091 A 
BRANCH  12  19
ATOM     18  C   UNL     1     -30.012 -15.013  12.723  0.00  0.00    +0.277 C 
ATOM     19  O   UNL     1     -30.263 -15.062  14.124  0.00  0.00    -0.495 OA
ENDBRANCH  12  19
BRANCH  16  20
ATOM     20  O   UNL     1     -29.074 -12.534  18.181  0.00  0.00    -0.494 OA
ATOM     21  C   UNL     1     -27.805 -11.906  18.321  0.00  0.00    +0.277 C 
ENDBRANCH  16  20
ENDBRANCH   1  15
BRANCH   2  22
ATOM     22  C   UNL     1     -32.505 -11.485  18.806  0.00  0.00    +0.049 C 
BRANCH  22  23
ATOM     23  C   UNL     1     -32.358 -11.829  20.290  0.00  0.00    +0.125 C 
BRANCH  23  24
ATOM     24  C   UNL     1     -31.091 -12.589  20.527  0.00  0.00    +0.305 C 
ATOM     25  O   UNL     1     -30.165 -12.077  21.213  0.00  0.00    -0.251 OA
BRANCH  24  26
ATOM     26  O   UNL     1     -30.955 -13.880  20.027  0.00  0.00    -0.481 OA
ATOM     27  H   UNL     1     -30.045 -14.323  19.974  0.00  0.00    +0.295 HD
ENDBRANCH  24  26
ENDBRANCH  23  24
ENDBRANCH  22  23
ENDBRANCH   2  22
TORSDOF 8
ENDMDL
MODEL 6
REMARK VINA RESULT:    -3.820      3.312      5.818
REMARK INTER + INTRA:          -6.697
REMARK INTER:                  -5.347
REMARK INTRA:                  -1.350
REMARK UNBOUND:                -1.202
REMARK  Name = 
REMARK  10 active torsions:
REMARK  status: ('A' for Active; 'I' for Inactive)
REMARK    1  A    between atoms: C_1  and  O_2
REMARK    2  A    between atoms: O_2  and  C_3
REMARK    3  A    between atoms: C_6  and  C_7
REMARK    4  A    between atoms: C_8  and  C_9
REMARK    5  A    between atoms: C_8  and  C_14
REMARK    6  A    between atoms: C_9  and  C_10
REMARK    7  A    between atoms: C_10  and  C_11
REMARK    8  A    between atoms: C_11  and  O_13
REMARK    9  A    between atoms: C_23  and  O_25
REMARK   10  A    between atoms: O_25  and  C_26
REMARK                            x       y       z     vdW  Elec       q    Type
REMARK                         _______ _______ _______ _____ _____    ______ ____
ROOT
ATOM      1  C   UNL     1     -31.138 -10.441  16.947  0.00  0.00    +0.017 C 
ATOM      2  C   UNL     1     -31.864 -10.404  18.084  0.00  0.00    -0.014 C 
ENDROOT
BRANCH   2   3
ATOM      3  C   UNL     1     -31.975  -9.139  18.855  0.00  0.00    +0.106 A 
ATOM      4  N   UNL     1     -30.974  -8.665  19.641  0.00  0.00    -0.239 NA
ATOM      5  C   UNL     1     -31.320  -7.493  20.235  0.00  0.00    +0.079 A 
ATOM      6  C   UNL     1     -30.492  -6.774  21.098  0.00  0.00    +0.029 A 
ATOM      7  C   UNL     1     -30.972  -5.572  21.647  0.00  0.00    +0.002 A 
ATOM      8  C   UNL     1     -32.264  -5.107  21.328  0.00  0.00    +0.001 A 
ATOM      9  C   UNL     1     -33.087  -5.840  20.457  0.00  0.00    +0.017 A 
ATOM     10  C   UNL     1     -32.586  -7.026  19.928  0.00  0.00    +0.040 A 
ATOM     11  S   UNL     1     -33.324  -8.102  18.876  0.00  0.00    -0.067 S 
ENDBRANCH   2   3
BRANCH   1  15
ATOM     12  C   UNL     1     -30.722 -13.892  14.435  0.00  0.00    +0.124 A 
ATOM     13  C   UNL     1     -29.994 -13.785  15.622  0.00  0.00    +0.046 A 
ATOM     14  C   UNL     1     -30.132 -12.662  16.439  0.00  0.00    +0.015 A 
ATOM     15  C   UNL     1     -31.016 -11.633  16.086  0.00  0.00    +0.017 A 
ATOM     16  C   UNL     1     -31.744 -11.714  14.886  0.00  0.00    +0.131 A 
ATOM     17  C   UNL     1     -31.597 -12.852  14.065  0.00  0.00    +0.091 A 
BRANCH  12  19
ATOM     18  C   UNL     1     -29.908 -15.062  12.379  0.00  0.00    +0.277 C 
ATOM     19  O   UNL     1     -30.548 -15.043  13.651  0.00  0.00    -0.495 OA
ENDBRANCH  12  19
BRANCH  16  20
ATOM     20  O   UNL     1     -32.606 -10.658  14.546  0.00  0.00    -0.494 OA
ATOM     21  C   UNL     1     -34.021 -10.769  14.448  0.00  0.00    +0.277 C 
ENDBRANCH  16  20
ENDBRANCH   1  15
BRANCH   2  22
ATOM     22  C   UNL     1     -32.683 -11.597  18.541  0.00  0.00    +0.049 C 
BRANCH  22  23
ATOM     23  C   UNL     1     -32.409 -11.908  20.015  0.00  0.00    +0.125 C 
BRANCH  23  24
ATOM     24  C   UNL     1     -31.112 -12.639  20.162  0.00  0.00    +0.305 C 
ATOM     25  O   UNL     1     -30.107 -12.051  20.645  0.00  0.00    -0.251 OA
BRANCH  24  26
ATOM     26  O   UNL     1     -31.029 -13.981  19.807  0.00  0.00    -0.481 OA
ATOM     27  H   UNL     1     -31.121 -14.268  18.839  0.00  0.00    +0.295 HD
ENDBRANCH  24  26
ENDBRANCH  23  24
ENDBRANCH  22  23
ENDBRANCH   2  22
TORSDOF 8
ENDMDL
MODEL 7
REMARK VINA RESULT:    -3.717      3.839      6.402
REMARK INTER + INTRA:          -6.548
REMARK INTER:                  -5.418
REMARK INTRA:                  -1.131
REMARK UNBOUND:                -1.202
REMARK  Name = 
REMARK  10 active torsions:
REMARK  status: ('A' for Active; 'I' for Inactive)
REMARK    1  A    between atoms: C_1  and  O_2
REMARK    2  A    between atoms: O_2  and  C_3
REMARK    3  A    between atoms: C_6  and  C_7
REMARK    4  A    between atoms: C_8  and  C_9
REMARK    5  A    between atoms: C_8  and  C_14
REMARK    6  A    between atoms: C_9  and  C_10
REMARK    7  A    between atoms: C_10  and  C_11
REMARK    8  A    between atoms: C_11  and  O_13
REMARK    9  A    between atoms: C_23  and  O_25
REMARK   10  A    between atoms: O_25  and  C_26
REMARK                            x       y       z     vdW  Elec       q    Type
REMARK                         _______ _______ _______ _____ _____    ______ ____
ROOT
ATOM      1  C   UNL     1     -33.220 -10.577  17.121  0.00  0.00    +0.017 C 
ATOM      2  C   UNL     1     -31.973 -10.668  16.614  0.00  0.00    -0.014 C 
ENDROOT
BRANCH   2   3
ATOM      3  C   UNL     1     -31.685 -11.626  15.516  0.00  0.00    +0.106 A 
ATOM      4  N   UNL     1     -30.708 -12.566  15.596  0.00  0.00    -0.239 NA
ATOM      5  C   UNL     1     -30.646 -13.319  14.468  0.00  0.00    +0.079 A 
ATOM      6  C   UNL     1     -29.740 -14.359  14.263  0.00  0.00    +0.029 A 
ATOM      7  C   UNL     1     -29.782 -15.062  13.046  0.00  0.00    +0.002 A 
ATOM      8  C   UNL     1     -30.724 -14.717  12.055  0.00  0.00    +0.001 A 
ATOM      9  C   UNL     1     -31.632 -13.668  12.273  0.00  0.00    +0.017 A 
ATOM     10  C   UNL     1     -31.568 -12.990  13.488  0.00  0.00    +0.040 A 
ATOM     11  S   UNL     1     -32.506 -11.712  14.029  0.00  0.00    -0.067 S 
ENDBRANCH   2   3
BRANCH   1  15
ATOM     12  C   UNL     1     -34.318  -7.750  20.154  0.00  0.00    +0.124 A 
ATOM     13  C   UNL     1     -34.387  -7.405  18.802  0.00  0.00    +0.046 A 
ATOM     14  C   UNL     1     -34.032  -8.327  17.817  0.00  0.00    +0.015 A 
ATOM     15  C   UNL     1     -33.614  -9.617  18.171  0.00  0.00    +0.017 A 
ATOM     16  C   UNL     1     -33.521  -9.977  19.527  0.00  0.00    +0.131 A 
ATOM     17  C   UNL     1     -33.881  -9.039  20.516  0.00  0.00    +0.091 A 
BRANCH  12  19
ATOM     18  C   UNL     1     -34.501  -5.384  20.947  0.00  0.00    +0.277 C 
ATOM     19  O   UNL     1     -34.690  -6.786  21.105  0.00  0.00    -0.495 OA
ENDBRANCH  12  19
BRANCH  16  20
ATOM     20  O   UNL     1     -33.079 -11.270  19.853  0.00  0.00    -0.494 OA
ATOM     21  C   UNL     1     -32.282 -11.591  20.987  0.00  0.00    +0.277 C 
ENDBRANCH  16  20
ENDBRANCH   1  15
BRANCH   2  22
ATOM     22  C   UNL     1     -30.869  -9.722  17.049  0.00  0.00    +0.049 C 
BRANCH  22  23
ATOM     23  C   UNL     1     -29.694 -10.502  17.648  0.00  0.00    +0.125 C 
BRANCH  23  24
ATOM     24  C   UNL     1     -29.495 -10.128  19.082  0.00  0.00    +0.305 C 
ATOM     25  O   UNL     1     -28.930 -10.931  19.872  0.00  0.00    -0.251 OA
BRANCH  24  26
ATOM     26  O   UNL     1     -29.896  -8.874  19.532  0.00  0.00    -0.481 OA
ATOM     27  H   UNL     1     -29.223  -8.126  19.650  0.00  0.00    +0.295 HD
ENDBRANCH  24  26
ENDBRANCH  23  24
ENDBRANCH  22  23
ENDBRANCH   2  22
TORSDOF 8
ENDMDL
MODEL 8
REMARK VINA RESULT:    -3.594      3.571      6.051
REMARK INTER + INTRA:          -6.373
REMARK INTER:                  -4.878
REMARK INTRA:                  -1.495
REMARK UNBOUND:                -1.202
REMARK  Name = 
REMARK  10 active torsions:
REMARK  status: ('A' for Active; 'I' for Inactive)
REMARK    1  A    between atoms: C_1  and  O_2
REMARK    2  A    between atoms: O_2  and  C_3
REMARK    3  A    between atoms: C_6  and  C_7
REMARK    4  A    between atoms: C_8  and  C_9
REMARK    5  A    between atoms: C_8  and  C_14
REMARK    6  A    between atoms: C_9  and  C_10
REMARK    7  A    between atoms: C_10  and  C_11
REMARK    8  A    between atoms: C_11  and  O_13
REMARK    9  A    between atoms: C_23  and  O_25
REMARK   10  A    between atoms: O_25  and  C_26
REMARK                            x       y       z     vdW  Elec       q    Type
REMARK                         _______ _______ _______ _____ _____    ______ ____
ROOT
ATOM      1  C   UNL     1     -32.899 -11.203  16.518  0.00  0.00    +0.017 C 
ATOM      2  C   UNL     1     -32.262 -10.197  17.153  0.00  0.00    -0.014 C 
ENDROOT
BRANCH   2   3
ATOM      3  C   UNL     1     -32.926  -9.488  18.277  0.00  0.00    +0.106 A 
ATOM      4  N   UNL     1     -33.374  -8.210  18.179  0.00  0.00    -0.239 NA
ATOM      5  C   UNL     1     -33.945  -7.792  19.338  0.00  0.00    +0.079 A 
ATOM      6  C   UNL     1     -34.492  -6.523  19.534  0.00  0.00    +0.029 A 
ATOM      7  C   UNL     1     -35.054  -6.217  20.786  0.00  0.00    +0.002 A 
ATOM      8  C   UNL     1     -35.062  -7.175  21.819  0.00  0.00    +0.001 A 
ATOM      9  C   UNL     1     -34.508  -8.449  21.609  0.00  0.00    +0.017 A 
ATOM     10  C   UNL     1     -33.959  -8.725  20.360  0.00  0.00    +0.040 A 
ATOM     11  S   UNL     1     -33.235 -10.137  19.819  0.00  0.00    -0.067 S 
ENDBRANCH   2   3
BRANCH   1  15
ATOM     12  C   UNL     1     -31.215 -13.540  13.340  0.00  0.00    +0.124 A 
ATOM     13  C   UNL     1     -32.024 -12.437  13.060  0.00  0.00    +0.046 A 
ATOM     14  C   UNL     1     -32.570 -11.676  14.095  0.00  0.00    +0.015 A 
ATOM     15  C   UNL     1     -32.300 -12.002  15.431  0.00  0.00    +0.017 A 
ATOM     16  C   UNL     1     -31.503 -13.120  15.734  0.00  0.00    +0.131 A 
ATOM     17  C   UNL     1     -30.957 -13.883  14.682  0.00  0.00    +0.091 A 
BRANCH  12  19
ATOM     18  C   UNL     1     -29.509 -15.062  12.326  0.00  0.00    +0.277 C 
ATOM     19  O   UNL     1     -30.690 -14.270  12.262  0.00  0.00    -0.495 OA
ENDBRANCH  12  19
BRANCH  16  20
ATOM     20  O   UNL     1     -31.267 -13.435  17.083  0.00  0.00    -0.494 OA
ATOM     21  C   UNL     1     -30.995 -14.743  17.572  0.00  0.00    +0.277 C 
ENDBRANCH  16  20
ENDBRANCH   1  15
BRANCH   2  22
ATOM     22  C   UNL     1     -30.821  -9.845  16.834  0.00  0.00    +0.049 C 
BRANCH  22  23
ATOM     23  C   UNL     1     -29.978  -9.806  18.112  0.00  0.00    +0.125 C 
BRANCH  23  24
ATOM     24  C   UNL     1     -28.900 -10.841  18.058  0.00  0.00    +0.305 C 
ATOM     25  O   UNL     1     -27.706 -10.500  17.840  0.00  0.00    -0.251 OA
BRANCH  24  26
ATOM     26  O   UNL     1     -29.210 -12.176  18.295  0.00  0.00    -0.481 OA
ATOM     27  H   UNL     1     -29.995 -12.430  18.883  0.00  0.00    +0.295 HD
ENDBRANCH  24  26
ENDBRANCH  23  24
ENDBRANCH  22  23
ENDBRANCH   2  22
TORSDOF 8
ENDMDL
