MODEL 1
REMARK VINA RESULT:    -5.229      0.000      0.000
REMARK INTER + INTRA:          -6.660
REMARK INTER:                  -6.758
REMARK INTRA:                   0.098
REMARK UNBOUND:                 0.098
REMARK  Name = 
REMARK  5 active torsions:
REMARK  status: ('A' for Active; 'I' for Inactive)
REMARK    1  A    between atoms: C_2  and  C_4
REMARK    2  A    between atoms: C_4  and  N_5
REMARK    3  A    between atoms: C_4  and  C_19
REMARK    4  A    between atoms: C_6  and  C_8
REMARK    5  A    between atoms: C_11  and  C_14
REMARK                            x       y       z     vdW  Elec       q    Type
REMARK                         _______ _______ _______ _____ _____    ______ ____
ROOT
ATOM      1  N   UNL     1     -31.652 -10.827  16.387  0.00  0.00    -0.296 N 
ATOM      2  C   UNL     1     -31.730 -11.886  17.356  0.00  0.00    +0.245 C 
ATOM      3  O   UNL     1     -32.833 -12.466  17.558  0.00  0.00    -0.270 OA
ATOM      4  H   UNL     1     -30.711 -10.510  16.062  0.00  0.00    +0.150 HD
ENDROOT
BRANCH   2   5
ATOM      5  C   UNL     1     -30.533 -12.316  18.117  0.00  0.00    +0.037 A 
ATOM      6  C   UNL     1     -29.239 -11.970  17.689  0.00  0.00    +0.014 A 
ATOM      7  C   UNL     1     -28.117 -12.373  18.419  0.00  0.00    +0.012 A 
ATOM      8  C   UNL     1     -28.266 -13.127  19.597  0.00  0.00    +0.019 A 
ATOM      9  C   UNL     1     -29.559 -13.461  20.030  0.00  0.00    +0.012 A 
ATOM     10  C   UNL     1     -30.680 -13.057  19.302  0.00  0.00    +0.014 A 
BRANCH   8  11
ATOM     11  C   UNL     1     -27.093 -13.567  20.386  0.00  0.00    +0.155 A 
ATOM     12  C   UNL     1     -26.974 -13.653  21.759  0.00  0.00    +0.160 A 
ATOM     13  N   UNL     1     -25.740 -14.098  22.062  0.00  0.00    -0.224 NA
ATOM     14  C   UNL     1     -25.155 -14.266  20.857  0.00  0.00    +0.308 A 
ATOM     15  O   UNL     1     -25.954 -13.953  19.863  0.00  0.00    -0.442 OA
ENDBRANCH   8  11
ENDBRANCH   2   5
BRANCH   1  16
ATOM     16  C   UNL     1     -32.858 -10.207  15.823  0.00  0.00    +0.189 C 
BRANCH  16  17
ATOM     17  C   UNL     1     -33.286 -10.922  14.560  0.00  0.00    -0.018 A 
ATOM     18  C   UNL     1     -32.526 -11.996  14.066  0.00  0.00    +0.006 A 
ATOM     19  C   UNL     1     -32.904 -12.648  12.888  0.00  0.00    +0.000 A 
ATOM     20  C   UNL     1     -34.039 -12.229  12.188  0.00  0.00    +0.000 A 
ATOM     21  C   UNL     1     -34.795 -11.153  12.664  0.00  0.00    +0.000 A 
ATOM     22  C   UNL     1     -34.420 -10.499  13.840  0.00  0.00    +0.006 A 
ENDBRANCH  16  17
BRANCH  16  24
ATOM     23  N   UNL     1     -35.062 -11.152  16.686  0.00  0.00    -0.328 N 
ATOM     24  C   UNL     1     -33.989 -10.219  16.820  0.00  0.00    +0.235 C 
ATOM     25  O   UNL     1     -33.975  -9.429  17.802  0.00  0.00    -0.274 OA
ATOM     26  H   UNL     1     -35.839 -11.164  17.383  0.00  0.00    +0.145 HD
ATOM     27  H   UNL     1     -35.083 -11.836  15.897  0.00  0.00    +0.145 HD
ENDBRANCH  16  24
ENDBRANCH   1  16
TORSDOF 5
ENDMDL
MODEL 2
REMARK VINA RESULT:    -4.709      2.480      4.308
REMARK INTER + INTRA:          -5.988
REMARK INTER:                  -5.078
REMARK INTRA:                  -0.910
REMARK UNBOUND:                 0.098
REMARK  Name = 
REMARK  5 active torsions:
REMARK  status: ('A' for Active; 'I' for Inactive)
REMARK    1  A    between atoms: C_2  and  C_4
REMARK    2  A    between atoms: C_4  and  N_5
REMARK    3  A    between atoms: C_4  and  C_19
REMARK    4  A    between atoms: C_6  and  C_8
REMARK    5  A    between atoms: C_11  and  C_14
REMARK                            x       y       z     vdW  Elec       q    Type
REMARK                         _______ _______ _______ _____ _____    ______ ____
ROOT
ATOM      1  N   UNL     1     -32.277 -10.112  18.443  0.00  0.00    -0.296 N 
ATOM      2  C   UNL     1     -32.118 -11.494  18.805  0.00  0.00    +0.245 C 
ATOM      3  O   UNL     1     -33.102 -12.279  18.715  0.00  0.00    -0.270 OA
ATOM      4  H   UNL     1     -31.423  -9.526  18.302  0.00  0.00    +0.150 HD
ENDROOT
BRANCH   2   5
ATOM      5  C   UNL     1     -30.812 -12.016  19.274  0.00  0.00    +0.037 A 
ATOM      6  C   UNL     1     -30.708 -12.740  20.475  0.00  0.00    +0.014 A 
ATOM      7  C   UNL     1     -29.473 -13.234  20.902  0.00  0.00    +0.012 A 
ATOM      8  C   UNL     1     -28.314 -13.022  20.134  0.00  0.00    +0.019 A 
ATOM      9  C   UNL     1     -28.421 -12.310  18.928  0.00  0.00    +0.012 A 
ATOM     10  C   UNL     1     -29.655 -11.817  18.500  0.00  0.00    +0.014 A 
BRANCH   8  11
ATOM     11  C   UNL     1     -26.995 -13.535  20.567  0.00  0.00    +0.155 A 
ATOM     12  C   UNL     1     -26.617 -13.955  21.828  0.00  0.00    +0.160 A 
ATOM     13  N   UNL     1     -25.329 -14.344  21.788  0.00  0.00    -0.224 NA
ATOM     14  C   UNL     1     -24.973 -14.145  20.502  0.00  0.00    +0.308 A 
ATOM     15  O   UNL     1     -25.958 -13.666  19.777  0.00  0.00    -0.442 OA
ENDBRANCH   8  11
ENDBRANCH   2   5
BRANCH   1  16
ATOM     16  C   UNL     1     -33.603  -9.516  18.237  0.00  0.00    +0.189 C 
BRANCH  16  17
ATOM     17  C   UNL     1     -33.641  -8.099  18.767  0.00  0.00    -0.018 A 
ATOM     18  C   UNL     1     -34.822  -7.343  18.674  0.00  0.00    +0.006 A 
ATOM     19  C   UNL     1     -34.858  -6.027  19.143  0.00  0.00    +0.000 A 
ATOM     20  C   UNL     1     -33.714  -5.450  19.701  0.00  0.00    +0.000 A 
ATOM     21  C   UNL     1     -32.530  -6.188  19.786  0.00  0.00    +0.000 A 
ATOM     22  C   UNL     1     -32.490  -7.504  19.318  0.00  0.00    +0.006 A 
ENDBRANCH  16  17
BRANCH  16  24
ATOM     23  N   UNL     1     -33.268  -8.704  15.845  0.00  0.00    -0.328 N 
ATOM     24  C   UNL     1     -33.978  -9.522  16.777  0.00  0.00    +0.235 C 
ATOM     25  O   UNL     1     -34.896 -10.278  16.361  0.00  0.00    -0.274 OA
ATOM     26  H   UNL     1     -33.524  -8.717  14.833  0.00  0.00    +0.145 HD
ATOM     27  H   UNL     1     -32.484  -8.090  16.158  0.00  0.00    +0.145 HD
ENDBRANCH  16  24
ENDBRANCH   1  16
TORSDOF 5
ENDMDL
MODEL 3
REMARK VINA RESULT:    -4.694      3.823      5.436
REMARK INTER + INTRA:          -5.968
REMARK INTER:                  -5.673
REMARK INTRA:                  -0.294
REMARK UNBOUND:                 0.098
REMARK  Name = 
REMARK  5 active torsions:
REMARK  status: ('A' for Active; 'I' for Inactive)
REMARK    1  A    between atoms: C_2  and  C_4
REMARK    2  A    between atoms: C_4  and  N_5
REMARK    3  A    between atoms: C_4  and  C_19
REMARK    4  A    between atoms: C_6  and  C_8
REMARK    5  A    between atoms: C_11  and  C_14
REMARK                            x       y       z     vdW  Elec       q    Type
REMARK                         _______ _______ _______ _____ _____    ______ ____
ROOT
ATOM      1  N   UNL     1     -30.516 -12.436  16.194  0.00  0.00    -0.296 N 
ATOM      2  C   UNL     1     -30.901 -12.417  17.579  0.00  0.00    +0.245 C 
ATOM      3  O   UNL     1     -31.241 -13.492  18.146  0.00  0.00    -0.270 OA
ATOM      4  H   UNL     1     -30.025 -11.603  15.796  0.00  0.00    +0.150 HD
ENDROOT
BRANCH   2   5
ATOM      5  C   UNL     1     -30.896 -11.155  18.356  0.00  0.00    +0.037 A 
ATOM      6  C   UNL     1     -30.116 -11.022  19.519  0.00  0.00    +0.014 A 
ATOM      7  C   UNL     1     -30.113  -9.824  20.239  0.00  0.00    +0.012 A 
ATOM      8  C   UNL     1     -30.884  -8.730  19.809  0.00  0.00    +0.019 A 
ATOM      9  C   UNL     1     -31.652  -8.859  18.641  0.00  0.00    +0.012 A 
ATOM     10  C   UNL     1     -31.655 -10.055  17.920  0.00  0.00    +0.014 A 
BRANCH   8  11
ATOM     11  C   UNL     1     -30.897  -7.452  20.556  0.00  0.00    +0.155 A 
ATOM     12  C   UNL     1     -31.970  -6.835  21.169  0.00  0.00    +0.160 A 
ATOM     13  N   UNL     1     -31.547  -5.689  21.736  0.00  0.00    -0.224 NA
ATOM     14  C   UNL     1     -30.230  -5.655  21.445  0.00  0.00    +0.308 A 
ATOM     15  O   UNL     1     -29.842  -6.698  20.747  0.00  0.00    -0.442 OA
ENDBRANCH   8  11
ENDBRANCH   2   5
BRANCH   1  16
ATOM     16  C   UNL     1     -30.766 -13.603  15.339  0.00  0.00    +0.189 C 
BRANCH  16  17
ATOM     17  C   UNL     1     -31.644 -13.228  14.166  0.00  0.00    -0.018 A 
ATOM     18  C   UNL     1     -32.470 -12.092  14.238  0.00  0.00    +0.006 A 
ATOM     19  C   UNL     1     -33.299 -11.751  13.165  0.00  0.00    +0.000 A 
ATOM     20  C   UNL     1     -33.319 -12.544  12.015  0.00  0.00    +0.000 A 
ATOM     21  C   UNL     1     -32.512 -13.683  11.938  0.00  0.00    +0.000 A 
ATOM     22  C   UNL     1     -31.683 -14.028  13.008  0.00  0.00    +0.006 A 
ENDBRANCH  16  17
BRANCH  16  24
ATOM     23  N   UNL     1     -28.703 -15.062  15.667  0.00  0.00    -0.328 N 
ATOM     24  C   UNL     1     -29.473 -14.192  14.836  0.00  0.00    +0.235 C 
ATOM     25  O   UNL     1     -29.081 -13.951  13.663  0.00  0.00    -0.274 OA
ATOM     26  H   UNL     1     -27.812 -15.477  15.313  0.00  0.00    +0.145 HD
ATOM     27  H   UNL     1     -29.019 -15.302  16.633  0.00  0.00    +0.145 HD
ENDBRANCH  16  24
ENDBRANCH   1  16
TORSDOF 5
ENDMDL
MODEL 4
REMARK VINA RESULT:    -4.122      4.758      7.559
REMARK INTER + INTRA:          -5.229
REMARK INTER:                  -4.543
REMARK INTRA:                  -0.685
REMARK UNBOUND:                 0.098
REMARK  Name = 
REMARK  5 active torsions:
REMARK  status: ('A' for Active; 'I' for Inactive)
REMARK    1  A    between atoms: C_2  and  C_4
REMARK    2  A    between atoms: C_4  and  N_5
REMARK    3  A    between atoms: C_4  and  C_19
REMARK    4  A    between atoms: C_6  and  C_8
REMARK    5  A    between atoms: C_11  and  C_14
REMARK                            x       y       z     vdW  Elec       q    Type
REMARK                         _______ _______ _______ _____ _____    ______ ____
ROOT
ATOM      1  N   UNL     1     -32.982  -7.897  18.178  0.00  0.00    -0.296 N 
ATOM      2  C   UNL     1     -33.829  -8.898  17.589  0.00  0.00    +0.245 C 
ATOM      3  O   UNL     1     -35.045  -8.960  17.921  0.00  0.00    -0.270 OA
ATOM      4  H   UNL     1     -32.052  -7.704  17.743  0.00  0.00    +0.150 HD
ENDROOT
BRANCH   2   5
ATOM      5  C   UNL     1     -33.300  -9.854  16.587  0.00  0.00    +0.037 A 
ATOM      6  C   UNL     1     -31.916 -10.023  16.406  0.00  0.00    +0.014 A 
ATOM      7  C   UNL     1     -31.428 -10.934  15.465  0.00  0.00    +0.012 A 
ATOM      8  C   UNL     1     -32.315 -11.701  14.688  0.00  0.00    +0.019 A 
ATOM      9  C   UNL     1     -33.696 -11.541  14.879  0.00  0.00    +0.012 A 
ATOM     10  C   UNL     1     -34.184 -10.632  15.820  0.00  0.00    +0.014 A 
BRANCH   8  11
ATOM     11  C   UNL     1     -31.822 -12.671  13.684  0.00  0.00    +0.155 A 
ATOM     12  C   UNL     1     -32.493 -13.177  12.588  0.00  0.00    +0.160 A 
ATOM     13  N   UNL     1     -31.680 -14.031  11.938  0.00  0.00    -0.224 NA
ATOM     14  C   UNL     1     -30.544 -14.011  12.666  0.00  0.00    +0.308 A 
ATOM     15  O   UNL     1     -30.625 -13.206  13.700  0.00  0.00    -0.442 OA
ENDBRANCH   8  11
ENDBRANCH   2   5
BRANCH   1  16
ATOM     16  C   UNL     1     -33.404  -7.124  19.353  0.00  0.00    +0.189 C 
BRANCH  16  17
ATOM     17  C   UNL     1     -32.204  -6.699  20.172  0.00  0.00    -0.018 A 
ATOM     18  C   UNL     1     -31.613  -7.599  21.075  0.00  0.00    +0.006 A 
ATOM     19  C   UNL     1     -30.517  -7.206  21.850  0.00  0.00    +0.000 A 
ATOM     20  C   UNL     1     -30.007  -5.910  21.737  0.00  0.00    +0.000 A 
ATOM     21  C   UNL     1     -30.596  -5.003  20.851  0.00  0.00    +0.000 A 
ATOM     22  C   UNL     1     -31.691  -5.391  20.076  0.00  0.00    +0.006 A 
ENDBRANCH  16  17
BRANCH  16  24
ATOM     23  N   UNL     1     -34.130  -5.419  17.604  0.00  0.00    -0.328 N 
ATOM     24  C   UNL     1     -34.195  -5.908  18.944  0.00  0.00    +0.235 C 
ATOM     25  O   UNL     1     -34.952  -5.335  19.775  0.00  0.00    -0.274 OA
ATOM     26  H   UNL     1     -34.686  -4.582  17.321  0.00  0.00    +0.145 HD
ATOM     27  H   UNL     1     -33.533  -5.891  16.888  0.00  0.00    +0.145 HD
ENDBRANCH  16  24
ENDBRANCH   1  16
TORSDOF 5
ENDMDL
MODEL 5
REMARK VINA RESULT:    -4.010      3.744      6.805
REMARK INTER + INTRA:          -5.084
REMARK INTER:                  -4.909
REMARK INTRA:                  -0.176
REMARK UNBOUND:                 0.098
REMARK  Name = 
REMARK  5 active torsions:
REMARK  status: ('A' for Active; 'I' for Inactive)
REMARK    1  A    between atoms: C_2  and  C_4
REMARK    2  A    between atoms: C_4  and  N_5
REMARK    3  A    between atoms: C_4  and  C_19
REMARK    4  A    between atoms: C_6  and  C_8
REMARK    5  A    between atoms: C_11  and  C_14
REMARK                            x       y       z     vdW  Elec       q    Type
REMARK                         _______ _______ _______ _____ _____    ______ ____
ROOT
ATOM      1  N   UNL     1     -31.141 -12.133  17.527  0.00  0.00    -0.296 N 
ATOM      2  C   UNL     1     -31.634 -11.962  18.867  0.00  0.00    +0.245 C 
ATOM      3  O   UNL     1     -31.517 -12.904  19.699  0.00  0.00    -0.270 OA
ATOM      4  H   UNL     1     -31.034 -11.290  16.919  0.00  0.00    +0.150 HD
ENDROOT
BRANCH   2   5
ATOM      5  C   UNL     1     -32.271 -10.692  19.291  0.00  0.00    +0.037 A 
ATOM      6  C   UNL     1     -33.195 -10.663  20.351  0.00  0.00    +0.014 A 
ATOM      7  C   UNL     1     -33.782  -9.458  20.748  0.00  0.00    +0.012 A 
ATOM      8  C   UNL     1     -33.453  -8.255  20.098  0.00  0.00    +0.019 A 
ATOM      9  C   UNL     1     -32.521  -8.284  19.049  0.00  0.00    +0.012 A 
ATOM     10  C   UNL     1     -31.933  -9.487  18.652  0.00  0.00    +0.014 A 
BRANCH   8  11
ATOM     11  C   UNL     1     -34.063  -6.968  20.500  0.00  0.00    +0.155 A 
ATOM     12  C   UNL     1     -34.612  -6.630  21.722  0.00  0.00    +0.160 A 
ATOM     13  N   UNL     1     -35.056  -5.360  21.664  0.00  0.00    -0.224 NA
ATOM     14  C   UNL     1     -34.759  -4.975  20.405  0.00  0.00    +0.308 A 
ATOM     15  O   UNL     1     -34.171  -5.924  19.714  0.00  0.00    -0.442 OA
ENDBRANCH   8  11
ENDBRANCH   2   5
BRANCH   1  16
ATOM     16  C   UNL     1     -30.757 -13.451  17.009  0.00  0.00    +0.189 C 
BRANCH  16  17
ATOM     17  C   UNL     1     -30.862 -13.484  15.500  0.00  0.00    -0.018 A 
ATOM     18  C   UNL     1     -31.629 -12.518  14.826  0.00  0.00    +0.006 A 
ATOM     19  C   UNL     1     -31.747 -12.554  13.433  0.00  0.00    +0.000 A 
ATOM     20  C   UNL     1     -31.107 -13.558  12.701  0.00  0.00    +0.000 A 
ATOM     21  C   UNL     1     -30.353 -14.531  13.362  0.00  0.00    +0.000 A 
ATOM     22  C   UNL     1     -30.233 -14.499  14.754  0.00  0.00    +0.006 A 
ENDBRANCH  16  17
BRANCH  16  24
ATOM     23  N   UNL     1     -29.038 -14.010  18.806  0.00  0.00    -0.328 N 
ATOM     24  C   UNL     1     -29.353 -13.809  17.427  0.00  0.00    +0.235 C 
ATOM     25  O   UNL     1     -28.455 -13.971  16.557  0.00  0.00    -0.274 OA
ATOM     26  H   UNL     1     -28.067 -14.267  19.092  0.00  0.00    +0.145 HD
ATOM     27  H   UNL     1     -29.770 -13.911  19.544  0.00  0.00    +0.145 HD
ENDBRANCH  16  24
ENDBRANCH   1  16
TORSDOF 5
ENDMDL
MODEL 6
REMARK VINA RESULT:    -3.929      4.161      6.639
REMARK INTER + INTRA:          -4.979
REMARK INTER:                  -4.259
REMARK INTRA:                  -0.720
REMARK UNBOUND:                 0.098
REMARK  Name = 
REMARK  5 active torsions:
REMARK  status: ('A' for Active; 'I' for Inactive)
REMARK    1  A    between atoms: C_2  and  C_4
REMARK    2  A    between atoms: C_4  and  N_5
REMARK    3  A    between atoms: C_4  and  C_19
REMARK    4  A    between atoms: C_6  and  C_8
REMARK    5  A    between atoms: C_11  and  C_14
REMARK                            x       y       z     vdW  Elec       q    Type
REMARK                         _______ _______ _______ _____ _____    ______ ____
ROOT
ATOM      1  N   UNL     1     -32.325 -10.772  19.682  0.00  0.00    -0.296 N 
ATOM      2  C   UNL     1     -31.682 -12.049  19.542  0.00  0.00    +0.245 C 
ATOM      3  O   UNL     1     -31.488 -12.765  20.564  0.00  0.00    -0.270 OA
ATOM      4  H   UNL     1     -32.684 -10.291  18.826  0.00  0.00    +0.150 HD
ENDROOT
BRANCH   2   5
ATOM      5  C   UNL     1     -31.250 -12.546  18.214  0.00  0.00    +0.037 A 
ATOM      6  C   UNL     1     -30.853 -13.883  18.034  0.00  0.00    +0.014 A 
ATOM      7  C   UNL     1     -30.456 -14.343  16.774  0.00  0.00    +0.012 A 
ATOM      8  C   UNL     1     -30.454 -13.477  15.667  0.00  0.00    +0.019 A 
ATOM      9  C   UNL     1     -30.864 -12.146  15.845  0.00  0.00    +0.012 A 
ATOM     10  C   UNL     1     -31.261 -11.686  17.103  0.00  0.00    +0.014 A 
BRANCH   8  11
ATOM     11  C   UNL     1     -30.036 -13.941  14.324  0.00  0.00    +0.155 A 
ATOM     12  C   UNL     1     -30.774 -13.942  13.156  0.00  0.00    +0.160 A 
ATOM     13  N   UNL     1     -30.017 -14.450  12.165  0.00  0.00    -0.224 NA
ATOM     14  C   UNL     1     -28.846 -14.737  12.771  0.00  0.00    +0.308 A 
ATOM     15  O   UNL     1     -28.854 -14.437  14.049  0.00  0.00    -0.442 OA
ENDBRANCH   8  11
ENDBRANCH   2   5
BRANCH   1  16
ATOM     16  C   UNL     1     -32.517 -10.144  20.995  0.00  0.00    +0.189 C 
BRANCH  16  17
ATOM     17  C   UNL     1     -32.138  -8.680  20.949  0.00  0.00    -0.018 A 
ATOM     18  C   UNL     1     -31.531  -8.073  22.062  0.00  0.00    +0.006 A 
ATOM     19  C   UNL     1     -31.196  -6.716  22.033  0.00  0.00    +0.000 A 
ATOM     20  C   UNL     1     -31.473  -5.950  20.897  0.00  0.00    +0.000 A 
ATOM     21  C   UNL     1     -32.089  -6.540  19.789  0.00  0.00    +0.000 A 
ATOM     22  C   UNL     1     -32.425  -7.896  19.815  0.00  0.00    +0.006 A 
ENDBRANCH  16  17
BRANCH  16  24
ATOM     23  N   UNL     1     -34.892  -9.244  21.207  0.00  0.00    -0.328 N 
ATOM     24  C   UNL     1     -33.945 -10.283  21.458  0.00  0.00    +0.235 C 
ATOM     25  O   UNL     1     -34.323 -11.337  22.038  0.00  0.00    -0.274 OA
ATOM     26  H   UNL     1     -35.883  -9.347  21.520  0.00  0.00    +0.145 HD
ATOM     27  H   UNL     1     -34.612  -8.373  20.703  0.00  0.00    +0.145 HD
ENDBRANCH  16  24
ENDBRANCH   1  16
TORSDOF 5
ENDMDL
