MODEL 1
REMARK VINA RESULT:    -5.293      0.000      0.000
REMARK INTER + INTRA:          -7.840
REMARK INTER:                  -6.995
REMARK INTRA:                  -0.845
REMARK UNBOUND:                -0.845
REMARK  Name = 
REMARK  6 active torsions:
REMARK  status: ('A' for Active; 'I' for Inactive)
REMARK    1  A    between atoms: C_2  and  O_3
REMARK    2  A    between atoms: C_2  and  C_4
REMARK    3  A    between atoms: C_4  and  C_5
REMARK    4  A    between atoms: C_5  and  N_6
REMARK    5  A    between atoms: C_5  and  C_18
REMARK    6  A    between atoms: C_7  and  C_9
REMARK                            x       y       z     vdW  Elec       q    Type
REMARK                         _______ _______ _______ _____ _____    ______ ____
ROOT
ATOM      1  N   UNL     1     -28.866 -13.090  17.747  0.00  0.00    -0.303 N 
ATOM      2  C   UNL     1     -29.921 -13.899  17.208  0.00  0.00    +0.248 C 
ATOM      3  O   UNL     1     -30.798 -14.382  17.974  0.00  0.00    -0.270 OA
ATOM      4  H   UNL     1     -28.334 -12.468  17.097  0.00  0.00    +0.150 HD
ENDROOT
BRANCH   2   5
ATOM      5  C   UNL     1     -30.030 -14.136  15.758  0.00  0.00    +0.082 A 
ATOM      6  C   UNL     1     -29.291 -15.059  15.023  0.00  0.00    +0.209 A 
ATOM      7  O   UNL     1     -29.642 -15.015  13.752  0.00  0.00    -0.462 OA
ATOM      8  C   UNL     1     -30.568 -14.096  13.623  0.00  0.00    +0.136 A 
ATOM      9  C   UNL     1     -31.209 -13.701  12.451  0.00  0.00    +0.047 A 
ATOM     10  C   UNL     1     -32.151 -12.661  12.535  0.00  0.00    +0.004 A 
ATOM     11  C   UNL     1     -32.419 -12.037  13.773  0.00  0.00    +0.001 A 
ATOM     12  C   UNL     1     -31.757 -12.457  14.941  0.00  0.00    +0.012 A 
ATOM     13  C   UNL     1     -30.847 -13.512  14.833  0.00  0.00    +0.032 A 
ENDBRANCH   2   5
BRANCH   1  14
ATOM     14  C   UNL     1     -28.670 -12.932  19.191  0.00  0.00    +0.121 C 
BRANCH  14  15
ATOM     15  C   UNL     1     -29.352 -11.679  19.662  0.00  0.00    +0.011 A 
ATOM     16  C   UNL     1     -29.582 -10.534  18.907  0.00  0.00    +0.013 A 
ATOM     17  C   UNL     1     -30.202  -9.510  19.634  0.00  0.00    +0.008 A 
ATOM     18  C   UNL     1     -30.453  -9.840  20.959  0.00  0.00    +0.045 A 
ATOM     19  S   UNL     1     -29.900 -11.405  21.228  0.00  0.00    -0.100 S 
ENDBRANCH  14  15
BRANCH  14  20
ATOM     20  C   UNL     1     -27.174 -12.881  19.542  0.00  0.00    +0.148 C 
BRANCH  20  22
ATOM     21  O   UNL     1     -25.877 -13.666  21.393  0.00  0.00    -0.251 OA
ATOM     22  C   UNL     1     -26.826 -13.889  20.594  0.00  0.00    +0.307 C 
BRANCH  22  23
ATOM     23  O   UNL     1     -27.567 -15.062  20.703  0.00  0.00    -0.481 OA
ATOM     24  H   UNL     1     -27.528 -15.624  21.545  0.00  0.00    +0.295 HD
ENDBRANCH  22  23
ENDBRANCH  20  22
ENDBRANCH  14  20
ENDBRANCH   1  14
TORSDOF 6
ENDMDL
MODEL 2
REMARK VINA RESULT:    -5.207      1.715      2.087
REMARK INTER + INTRA:          -7.726
REMARK INTER:                  -6.574
REMARK INTRA:                  -1.152
REMARK UNBOUND:                -0.845
REMARK  Name = 
REMARK  6 active torsions:
REMARK  status: ('A' for Active; 'I' for Inactive)
REMARK    1  A    between atoms: C_2  and  O_3
REMARK    2  A    between atoms: C_2  and  C_4
REMARK    3  A    between atoms: C_4  and  C_5
REMARK    4  A    between atoms: C_5  and  N_6
REMARK    5  A    between atoms: C_5  and  C_18
REMARK    6  A    between atoms: C_7  and  C_9
REMARK                            x       y       z     vdW  Elec       q    Type
REMARK                         _______ _______ _______ _____ _____    ______ ____
ROOT
ATOM      1  N   UNL     1     -30.343 -11.672  16.693  0.00  0.00    -0.303 N 
ATOM      2  C   UNL     1     -30.367 -13.021  16.205  0.00  0.00    +0.248 C 
ATOM      3  O   UNL     1     -30.063 -13.974  16.973  0.00  0.00    -0.270 OA
ATOM      4  H   UNL     1     -30.867 -10.940  16.161  0.00  0.00    +0.150 HD
ENDROOT
BRANCH   2   5
ATOM      5  C   UNL     1     -30.795 -13.321  14.828  0.00  0.00    +0.082 A 
ATOM      6  C   UNL     1     -30.111 -14.121  13.916  0.00  0.00    +0.209 A 
ATOM      7  O   UNL     1     -30.775 -14.183  12.778  0.00  0.00    -0.462 OA
ATOM      8  C   UNL     1     -31.855 -13.450  12.902  0.00  0.00    +0.136 A 
ATOM      9  C   UNL     1     -32.833 -13.216  11.938  0.00  0.00    +0.047 A 
ATOM     10  C   UNL     1     -33.896 -12.358  12.274  0.00  0.00    +0.004 A 
ATOM     11  C   UNL     1     -33.950 -11.752  13.548  0.00  0.00    +0.001 A 
ATOM     12  C   UNL     1     -32.949 -12.008  14.502  0.00  0.00    +0.012 A 
ATOM     13  C   UNL     1     -31.919 -12.885  14.151  0.00  0.00    +0.032 A 
ENDBRANCH   2   5
BRANCH   1  14
ATOM     14  C   UNL     1     -29.817 -11.336  18.019  0.00  0.00    +0.121 C 
BRANCH  14  15
ATOM     15  C   UNL     1     -30.604 -10.199  18.606  0.00  0.00    +0.011 A 
ATOM     16  C   UNL     1     -31.590  -9.461  17.960  0.00  0.00    +0.013 A 
ATOM     17  C   UNL     1     -32.117  -8.434  18.752  0.00  0.00    +0.008 A 
ATOM     18  C   UNL     1     -31.545  -8.353  20.014  0.00  0.00    +0.045 A 
ATOM     19  S   UNL     1     -30.381  -9.560  20.145  0.00  0.00    -0.100 S 
ENDBRANCH  14  15
BRANCH  14  20
ATOM     20  C   UNL     1     -28.328 -10.960  17.942  0.00  0.00    +0.148 C 
BRANCH  20  22
ATOM     21  O   UNL     1     -26.367 -11.734  19.075  0.00  0.00    -0.251 OA
ATOM     22  C   UNL     1     -27.463 -12.034  18.529  0.00  0.00    +0.307 C 
BRANCH  22  23
ATOM     23  O   UNL     1     -27.882 -13.360  18.491  0.00  0.00    -0.481 OA
ATOM     24  H   UNL     1     -28.487 -13.734  19.212  0.00  0.00    +0.295 HD
ENDBRANCH  22  23
ENDBRANCH  20  22
ENDBRANCH  14  20
ENDBRANCH   1  14
TORSDOF 6
ENDMDL
MODEL 3
REMARK VINA RESULT:    -5.032      3.421      4.826
REMARK INTER + INTRA:          -7.494
REMARK INTER:                  -6.742
REMARK INTRA:                  -0.752
REMARK UNBOUND:                -0.845
REMARK  Name = 
REMARK  6 active torsions:
REMARK  status: ('A' for Active; 'I' for Inactive)
REMARK    1  A    between atoms: C_2  and  O_3
REMARK    2  A    between atoms: C_2  and  C_4
REMARK    3  A    between atoms: C_4  and  C_5
REMARK    4  A    between atoms: C_5  and  N_6
REMARK    5  A    between atoms: C_5  and  C_18
REMARK    6  A    between atoms: C_7  and  C_9
REMARK                            x       y       z     vdW  Elec       q    Type
REMARK                         _______ _______ _______ _____ _____    ______ ____
ROOT
ATOM      1  N   UNL     1     -31.369 -10.106  17.958  0.00  0.00    -0.303 N 
ATOM      2  C   UNL     1     -31.317  -9.828  16.551  0.00  0.00    +0.248 C 
ATOM      3  O   UNL     1     -30.270  -9.340  16.045  0.00  0.00    -0.270 OA
ATOM      4  H   UNL     1     -32.102 -10.765  18.308  0.00  0.00    +0.150 HD
ENDROOT
BRANCH   2   5
ATOM      5  C   UNL     1     -32.453 -10.152  15.672  0.00  0.00    +0.082 A 
ATOM      6  C   UNL     1     -33.696  -9.524  15.677  0.00  0.00    +0.209 A 
ATOM      7  O   UNL     1     -34.479 -10.057  14.758  0.00  0.00    -0.462 OA
ATOM      8  C   UNL     1     -33.807 -11.011  14.162  0.00  0.00    +0.136 A 
ATOM      9  C   UNL     1     -34.253 -11.849  13.143  0.00  0.00    +0.047 A 
ATOM     10  C   UNL     1     -33.372 -12.839  12.671  0.00  0.00    +0.004 A 
ATOM     11  C   UNL     1     -32.082 -12.974  13.232  0.00  0.00    +0.001 A 
ATOM     12  C   UNL     1     -31.658 -12.113  14.260  0.00  0.00    +0.012 A 
ATOM     13  C   UNL     1     -32.544 -11.121  14.689  0.00  0.00    +0.032 A 
ENDBRANCH   2   5
BRANCH   1  14
ATOM     14  C   UNL     1     -30.300  -9.692  18.871  0.00  0.00    +0.121 C 
BRANCH  14  15
ATOM     15  C   UNL     1     -29.365 -10.842  19.115  0.00  0.00    +0.011 A 
ATOM     16  C   UNL     1     -28.229 -11.151  18.373  0.00  0.00    +0.013 A 
ATOM     17  C   UNL     1     -27.582 -12.310  18.815  0.00  0.00    +0.008 A 
ATOM     18  C   UNL     1     -28.207 -12.922  19.894  0.00  0.00    +0.045 A 
ATOM     19  S   UNL     1     -29.568 -12.020  20.297  0.00  0.00    -0.100 S 
ENDBRANCH  14  15
BRANCH  14  20
ATOM     20  C   UNL     1     -30.878  -9.192  20.205  0.00  0.00    +0.148 C 
BRANCH  20  22
ATOM     21  O   UNL     1     -31.835  -7.018  19.912  0.00  0.00    -0.251 OA
ATOM     22  C   UNL     1     -30.842  -7.696  20.289  0.00  0.00    +0.307 C 
BRANCH  22  23
ATOM     23  O   UNL     1     -29.718  -7.057  20.804  0.00  0.00    -0.481 OA
ATOM     24  H   UNL     1     -29.349  -6.222  20.366  0.00  0.00    +0.295 HD
ENDBRANCH  22  23
ENDBRANCH  20  22
ENDBRANCH  14  20
ENDBRANCH   1  14
TORSDOF 6
ENDMDL
MODEL 4
REMARK VINA RESULT:    -5.015      1.691      1.912
REMARK INTER + INTRA:          -7.472
REMARK INTER:                  -6.341
REMARK INTRA:                  -1.131
REMARK UNBOUND:                -0.845
REMARK  Name = 
REMARK  6 active torsions:
REMARK  status: ('A' for Active; 'I' for Inactive)
REMARK    1  A    between atoms: C_2  and  O_3
REMARK    2  A    between atoms: C_2  and  C_4
REMARK    3  A    between atoms: C_4  and  C_5
REMARK    4  A    between atoms: C_5  and  N_6
REMARK    5  A    between atoms: C_5  and  C_18
REMARK    6  A    between atoms: C_7  and  C_9
REMARK                            x       y       z     vdW  Elec       q    Type
REMARK                         _______ _______ _______ _____ _____    ______ ____
ROOT
ATOM      1  N   UNL     1     -30.027 -12.744  17.767  0.00  0.00    -0.303 N 
ATOM      2  C   UNL     1     -30.489 -13.968  17.180  0.00  0.00    +0.248 C 
ATOM      3  O   UNL     1     -31.058 -14.835  17.897  0.00  0.00    -0.270 OA
ATOM      4  H   UNL     1     -29.834 -11.931  17.138  0.00  0.00    +0.150 HD
ENDROOT
BRANCH   2   5
ATOM      5  C   UNL     1     -30.358 -14.212  15.733  0.00  0.00    +0.082 A 
ATOM      6  C   UNL     1     -29.436 -15.062  15.128  0.00  0.00    +0.209 A 
ATOM      7  O   UNL     1     -29.596 -15.049  13.818  0.00  0.00    -0.462 OA
ATOM      8  C   UNL     1     -30.574 -14.220  13.541  0.00  0.00    +0.136 A 
ATOM      9  C   UNL     1     -31.067 -13.886  12.282  0.00  0.00    +0.047 A 
ATOM     10  C   UNL     1     -32.103 -12.938  12.212  0.00  0.00    +0.004 A 
ATOM     11  C   UNL     1     -32.610 -12.344  13.389  0.00  0.00    +0.001 A 
ATOM     12  C   UNL     1     -32.093 -12.702  14.648  0.00  0.00    +0.012 A 
ATOM     13  C   UNL     1     -31.083 -13.667  14.690  0.00  0.00    +0.032 A 
ENDBRANCH   2   5
BRANCH   1  14
ATOM     14  C   UNL     1     -30.043 -12.524  19.216  0.00  0.00    +0.121 C 
BRANCH  14  15
ATOM     15  C   UNL     1     -31.282 -11.767  19.602  0.00  0.00    +0.011 A 
ATOM     16  C   UNL     1     -31.868 -11.735  20.863  0.00  0.00    +0.013 A 
ATOM     17  C   UNL     1     -33.043 -10.976  20.905  0.00  0.00    +0.008 A 
ATOM     18  C   UNL     1     -33.392 -10.417  19.683  0.00  0.00    +0.045 A 
ATOM     19  S   UNL     1     -32.237 -10.871  18.547  0.00  0.00    -0.100 S 
ENDBRANCH  14  15
BRANCH  14  20
ATOM     20  C   UNL     1     -28.793 -11.752  19.670  0.00  0.00    +0.148 C 
BRANCH  20  22
ATOM     21  O   UNL     1     -26.555 -11.604  18.837  0.00  0.00    -0.251 OA
ATOM     22  C   UNL     1     -27.546 -12.342  19.086  0.00  0.00    +0.307 C 
BRANCH  22  23
ATOM     23  O   UNL     1     -27.475 -13.710  18.839  0.00  0.00    -0.481 OA
ATOM     24  H   UNL     1     -28.054 -14.140  18.129  0.00  0.00    +0.295 HD
ENDBRANCH  22  23
ENDBRANCH  20  22
ENDBRANCH  14  20
ENDBRANCH   1  14
TORSDOF 6
ENDMDL
MODEL 5
REMARK VINA RESULT:    -4.769      2.930      6.087
REMARK INTER + INTRA:          -7.147
REMARK INTER:                  -5.879
REMARK INTRA:                  -1.268
REMARK UNBOUND:                -0.845
REMARK  Name = 
REMARK  6 active torsions:
REMARK  status: ('A' for Active; 'I' for Inactive)
REMARK    1  A    between atoms: C_2  and  O_3
REMARK    2  A    between atoms: C_2  and  C_4
REMARK    3  A    between atoms: C_4  and  C_5
REMARK    4  A    between atoms: C_5  and  N_6
REMARK    5  A    between atoms: C_5  and  C_18
REMARK    6  A    between atoms: C_7  and  C_9
REMARK                            x       y       z     vdW  Elec       q    Type
REMARK                         _______ _______ _______ _____ _____    ______ ____
ROOT
ATOM      1  N   UNL     1     -30.435 -12.259  18.535  0.00  0.00    -0.303 N 
ATOM      2  C   UNL     1     -29.309 -11.373  18.601  0.00  0.00    +0.248 C 
ATOM      3  O   UNL     1     -29.465 -10.140  18.390  0.00  0.00    -0.270 OA
ATOM      4  H   UNL     1     -30.358 -13.198  18.989  0.00  0.00    +0.150 HD
ENDROOT
BRANCH   2   5
ATOM      5  C   UNL     1     -27.972 -11.872  18.965  0.00  0.00    +0.082 A 
ATOM      6  C   UNL     1     -26.770 -11.501  18.367  0.00  0.00    +0.209 A 
ATOM      7  O   UNL     1     -25.763 -12.134  18.939  0.00  0.00    -0.462 OA
ATOM      8  C   UNL     1     -26.255 -12.909  19.875  0.00  0.00    +0.136 A 
ATOM      9  C   UNL     1     -25.552 -13.770  20.715  0.00  0.00    +0.047 A 
ATOM     10  C   UNL     1     -26.289 -14.544  21.629  0.00  0.00    +0.004 A 
ATOM     11  C   UNL     1     -27.698 -14.450  21.674  0.00  0.00    +0.001 A 
ATOM     12  C   UNL     1     -28.381 -13.571  20.814  0.00  0.00    +0.012 A 
ATOM     13  C   UNL     1     -27.622 -12.793  19.935  0.00  0.00    +0.032 A 
ENDBRANCH   2   5
BRANCH   1  14
ATOM     14  C   UNL     1     -31.750 -11.810  18.067  0.00  0.00    +0.121 C 
BRANCH  14  15
ATOM     15  C   UNL     1     -32.511 -11.192  19.205  0.00  0.00    +0.011 A 
ATOM     16  C   UNL     1     -32.588 -11.681  20.505  0.00  0.00    +0.013 A 
ATOM     17  C   UNL     1     -33.410 -10.910  21.335  0.00  0.00    +0.008 A 
ATOM     18  C   UNL     1     -33.987  -9.822  20.695  0.00  0.00    +0.045 A 
ATOM     19  S   UNL     1     -33.477  -9.820  19.092  0.00  0.00    -0.100 S 
ENDBRANCH  14  15
BRANCH  14  20
ATOM     20  C   UNL     1     -32.552 -12.978  17.471  0.00  0.00    +0.148 C 
BRANCH  20  22
ATOM     21  O   UNL     1     -31.406 -14.617  16.156  0.00  0.00    -0.251 OA
ATOM     22  C   UNL     1     -31.698 -14.199  17.309  0.00  0.00    +0.307 C 
BRANCH  22  23
ATOM     23  O   UNL     1     -31.208 -14.858  18.432  0.00  0.00    -0.481 OA
ATOM     24  H   UNL     1     -30.738 -15.750  18.346  0.00  0.00    +0.295 HD
ENDBRANCH  22  23
ENDBRANCH  20  22
ENDBRANCH  14  20
ENDBRANCH   1  14
TORSDOF 6
ENDMDL
MODEL 6
REMARK VINA RESULT:    -4.659      2.301      3.077
REMARK INTER + INTRA:          -7.001
REMARK INTER:                  -6.196
REMARK INTRA:                  -0.805
REMARK UNBOUND:                -0.845
REMARK  Name = 
REMARK  6 active torsions:
REMARK  status: ('A' for Active; 'I' for Inactive)
REMARK    1  A    between atoms: C_2  and  O_3
REMARK    2  A    between atoms: C_2  and  C_4
REMARK    3  A    between atoms: C_4  and  C_5
REMARK    4  A    between atoms: C_5  and  N_6
REMARK    5  A    between atoms: C_5  and  C_18
REMARK    6  A    between atoms: C_7  and  C_9
REMARK                            x       y       z     vdW  Elec       q    Type
REMARK                         _______ _______ _______ _____ _____    ______ ____
ROOT
ATOM      1  N   UNL     1     -30.845 -11.106  17.527  0.00  0.00    -0.303 N 
ATOM      2  C   UNL     1     -31.914 -12.041  17.324  0.00  0.00    +0.248 C 
ATOM      3  O   UNL     1     -32.100 -12.974  18.152  0.00  0.00    -0.270 OA
ATOM      4  H   UNL     1     -30.880 -10.192  17.020  0.00  0.00    +0.150 HD
ENDROOT
BRANCH   2   5
ATOM      5  C   UNL     1     -32.837 -11.901  16.186  0.00  0.00    +0.082 A 
ATOM      6  C   UNL     1     -34.132 -11.390  16.242  0.00  0.00    +0.209 A 
ATOM      7  O   UNL     1     -34.678 -11.402  15.040  0.00  0.00    -0.462 OA
ATOM      8  C   UNL     1     -33.803 -11.908  14.206  0.00  0.00    +0.136 A 
ATOM      9  C   UNL     1     -33.965 -12.126  12.840  0.00  0.00    +0.047 A 
ATOM     10  C   UNL     1     -32.902 -12.721  12.137  0.00  0.00    +0.004 A 
ATOM     11  C   UNL     1     -31.718 -13.093  12.812  0.00  0.00    +0.001 A 
ATOM     12  C   UNL     1     -31.582 -12.861  14.193  0.00  0.00    +0.012 A 
ATOM     13  C   UNL     1     -32.643 -12.242  14.860  0.00  0.00    +0.032 A 
ENDBRANCH   2   5
BRANCH   1  14
ATOM     14  C   UNL     1     -29.847 -11.286  18.586  0.00  0.00    +0.121 C 
BRANCH  14  15
ATOM     15  C   UNL     1     -30.174 -10.395  19.750  0.00  0.00    +0.011 A 
ATOM     16  C   UNL     1     -30.055 -10.724  21.097  0.00  0.00    +0.013 A 
ATOM     17  C   UNL     1     -30.477  -9.700  21.953  0.00  0.00    +0.008 A 
ATOM     18  C   UNL     1     -30.936  -8.570  21.288  0.00  0.00    +0.045 A 
ATOM     19  S   UNL     1     -30.819  -8.847  19.633  0.00  0.00    -0.100 S 
ENDBRANCH  14  15
BRANCH  14  20
ATOM     20  C   UNL     1     -28.433 -10.977  18.067  0.00  0.00    +0.148 C 
BRANCH  20  22
ATOM     21  O   UNL     1     -26.342 -11.689  18.988  0.00  0.00    -0.251 OA
ATOM     22  C   UNL     1     -27.453 -12.026  18.498  0.00  0.00    +0.307 C 
BRANCH  22  23
ATOM     23  O   UNL     1     -27.781 -13.373  18.377  0.00  0.00    -0.481 OA
ATOM     24  H   UNL     1     -27.674 -14.005  19.160  0.00  0.00    +0.295 HD
ENDBRANCH  22  23
ENDBRANCH  20  22
ENDBRANCH  14  20
ENDBRANCH   1  14
TORSDOF 6
ENDMDL
MODEL 7
REMARK VINA RESULT:    -4.607      3.322      4.696
REMARK INTER + INTRA:          -6.933
REMARK INTER:                  -5.678
REMARK INTRA:                  -1.254
REMARK UNBOUND:                -0.845
REMARK  Name = 
REMARK  6 active torsions:
REMARK  status: ('A' for Active; 'I' for Inactive)
REMARK    1  A    between atoms: C_2  and  O_3
REMARK    2  A    between atoms: C_2  and  C_4
REMARK    3  A    between atoms: C_4  and  C_5
REMARK    4  A    between atoms: C_5  and  N_6
REMARK    5  A    between atoms: C_5  and  C_18
REMARK    6  A    between atoms: C_7  and  C_9
REMARK                            x       y       z     vdW  Elec       q    Type
REMARK                         _______ _______ _______ _____ _____    ______ ____
ROOT
ATOM      1  N   UNL     1     -31.662 -10.302  17.694  0.00  0.00    -0.303 N 
ATOM      2  C   UNL     1     -31.554 -10.005  16.294  0.00  0.00    +0.248 C 
ATOM      3  O   UNL     1     -30.516  -9.446  15.848  0.00  0.00    -0.270 OA
ATOM      4  H   UNL     1     -32.368 -11.010  18.000  0.00  0.00    +0.150 HD
ENDROOT
BRANCH   2   5
ATOM      5  C   UNL     1     -32.619 -10.391  15.353  0.00  0.00    +0.082 A 
ATOM      6  C   UNL     1     -33.887  -9.820  15.275  0.00  0.00    +0.209 A 
ATOM      7  O   UNL     1     -34.588 -10.399  14.319  0.00  0.00    -0.462 OA
ATOM      8  C   UNL     1     -33.839 -11.328  13.777  0.00  0.00    +0.136 A 
ATOM      9  C   UNL     1     -34.186 -12.198  12.746  0.00  0.00    +0.047 A 
ATOM     10  C   UNL     1     -33.235 -13.152  12.342  0.00  0.00    +0.004 A 
ATOM     11  C   UNL     1     -31.977 -13.222  12.981  0.00  0.00    +0.001 A 
ATOM     12  C   UNL     1     -31.654 -12.330  14.020  0.00  0.00    +0.012 A 
ATOM     13  C   UNL     1     -32.608 -11.374  14.381  0.00  0.00    +0.032 A 
ENDBRANCH   2   5
BRANCH   1  14
ATOM     14  C   UNL     1     -30.671  -9.831  18.666  0.00  0.00    +0.121 C 
BRANCH  14  15
ATOM     15  C   UNL     1     -29.619 -10.884  18.870  0.00  0.00    +0.011 A 
ATOM     16  C   UNL     1     -28.364 -10.921  18.270  0.00  0.00    +0.013 A 
ATOM     17  C   UNL     1     -27.619 -12.052  18.624  0.00  0.00    +0.008 A 
ATOM     18  C   UNL     1     -28.282 -12.910  19.490  0.00  0.00    +0.045 A 
ATOM     19  S   UNL     1     -29.800 -12.262  19.816  0.00  0.00    -0.100 S 
ENDBRANCH  14  15
BRANCH  14  20
ATOM     20  C   UNL     1     -31.337  -9.485  20.008  0.00  0.00    +0.148 C 
BRANCH  20  22
ATOM     21  O   UNL     1     -33.603  -9.257  19.274  0.00  0.00    -0.251 OA
ATOM     22  C   UNL     1     -32.785  -9.869  20.013  0.00  0.00    +0.307 C 
BRANCH  22  23
ATOM     23  O   UNL     1     -33.223 -10.917  20.817  0.00  0.00    -0.481 OA
ATOM     24  H   UNL     1     -32.686 -11.772  20.893  0.00  0.00    +0.295 HD
ENDBRANCH  22  23
ENDBRANCH  20  22
ENDBRANCH  14  20
ENDBRANCH   1  14
TORSDOF 6
ENDMDL
MODEL 8
REMARK VINA RESULT:    -4.570      2.744      6.767
REMARK INTER + INTRA:          -6.885
REMARK INTER:                  -5.672
REMARK INTRA:                  -1.212
REMARK UNBOUND:                -0.845
REMARK  Name = 
REMARK  6 active torsions:
REMARK  status: ('A' for Active; 'I' for Inactive)
REMARK    1  A    between atoms: C_2  and  O_3
REMARK    2  A    between atoms: C_2  and  C_4
REMARK    3  A    between atoms: C_4  and  C_5
REMARK    4  A    between atoms: C_5  and  N_6
REMARK    5  A    between atoms: C_5  and  C_18
REMARK    6  A    between atoms: C_7  and  C_9
REMARK                            x       y       z     vdW  Elec       q    Type
REMARK                         _______ _______ _______ _____ _____    ______ ____
ROOT
ATOM      1  N   UNL     1     -31.143 -11.974  16.213  0.00  0.00    -0.303 N 
ATOM      2  C   UNL     1     -30.823 -10.612  16.527  0.00  0.00    +0.248 C 
ATOM      3  O   UNL     1     -30.431  -9.831  15.618  0.00  0.00    -0.270 OA
ATOM      4  H   UNL     1     -31.732 -12.516  16.886  0.00  0.00    +0.150 HD
ENDROOT
BRANCH   2   5
ATOM      5  C   UNL     1     -30.995 -10.089  17.893  0.00  0.00    +0.082 A 
ATOM      6  C   UNL     1     -31.801  -9.014  18.261  0.00  0.00    +0.209 A 
ATOM      7  O   UNL     1     -31.728  -8.816  19.564  0.00  0.00    -0.462 OA
ATOM      8  C   UNL     1     -30.902  -9.706  20.060  0.00  0.00    +0.136 A 
ATOM      9  C   UNL     1     -30.515  -9.850  21.390  0.00  0.00    +0.047 A 
ATOM     10  C   UNL     1     -29.581 -10.855  21.698  0.00  0.00    +0.004 A 
ATOM     11  C   UNL     1     -29.051 -11.676  20.678  0.00  0.00    +0.001 A 
ATOM     12  C   UNL     1     -29.461 -11.508  19.343  0.00  0.00    +0.012 A 
ATOM     13  C   UNL     1     -30.412 -10.520  19.070  0.00  0.00    +0.032 A 
ENDBRANCH   2   5
BRANCH   1  14
ATOM     14  C   UNL     1     -30.875 -12.549  14.891  0.00  0.00    +0.121 C 
BRANCH  14  15
ATOM     15  C   UNL     1     -32.118 -12.488  14.049  0.00  0.00    +0.011 A 
ATOM     16  C   UNL     1     -32.233 -12.884  12.720  0.00  0.00    +0.013 A 
ATOM     17  C   UNL     1     -33.509 -12.667  12.189  0.00  0.00    +0.008 A 
ATOM     18  C   UNL     1     -34.398 -12.093  13.088  0.00  0.00    +0.045 A 
ATOM     19  S   UNL     1     -33.594 -11.854  14.546  0.00  0.00    -0.100 S 
ENDBRANCH  14  15
BRANCH  14  20
ATOM     20  C   UNL     1     -30.391 -14.003  15.009  0.00  0.00    +0.148 C 
BRANCH  20  22
ATOM     21  O   UNL     1     -30.263 -14.269  17.384  0.00  0.00    -0.251 OA
ATOM     22  C   UNL     1     -29.642 -14.226  16.288  0.00  0.00    +0.307 C 
BRANCH  22  23
ATOM     23  O   UNL     1     -28.263 -14.407  16.261  0.00  0.00    -0.481 OA
ATOM     24  H   UNL     1     -27.833 -15.190  16.739  0.00  0.00    +0.295 HD
ENDBRANCH  22  23
ENDBRANCH  20  22
ENDBRANCH  14  20
ENDBRANCH   1  14
TORSDOF 6
ENDMDL
MODEL 9
REMARK VINA RESULT:    -4.524      1.725      2.517
REMARK INTER + INTRA:          -6.823
REMARK INTER:                  -5.595
REMARK INTRA:                  -1.228
REMARK UNBOUND:                -0.845
REMARK  Name = 
REMARK  6 active torsions:
REMARK  status: ('A' for Active; 'I' for Inactive)
REMARK    1  A    between atoms: C_2  and  O_3
REMARK    2  A    between atoms: C_2  and  C_4
REMARK    3  A    between atoms: C_4  and  C_5
REMARK    4  A    between atoms: C_5  and  N_6
REMARK    5  A    between atoms: C_5  and  C_18
REMARK    6  A    between atoms: C_7  and  C_9
REMARK                            x       y       z     vdW  Elec       q    Type
REMARK                         _______ _______ _______ _____ _____    ______ ____
ROOT
ATOM      1  N   UNL     1     -30.575 -12.386  18.290  0.00  0.00    -0.303 N 
ATOM      2  C   UNL     1     -31.749 -12.745  17.548  0.00  0.00    +0.248 C 
ATOM      3  O   UNL     1     -32.849 -12.898  18.144  0.00  0.00    -0.270 OA
ATOM      4  H   UNL     1     -29.762 -11.981  17.772  0.00  0.00    +0.150 HD
ENDROOT
BRANCH   2   5
ATOM      5  C   UNL     1     -31.704 -12.888  16.082  0.00  0.00    +0.082 A 
ATOM      6  C   UNL     1     -32.592 -12.312  15.178  0.00  0.00    +0.209 A 
ATOM      7  O   UNL     1     -32.261 -12.639  13.943  0.00  0.00    -0.462 OA
ATOM      8  C   UNL     1     -31.204 -13.413  14.003  0.00  0.00    +0.136 A 
ATOM      9  C   UNL     1     -30.529 -14.005  12.938  0.00  0.00    +0.047 A 
ATOM     10  C   UNL     1     -29.434 -14.836  13.233  0.00  0.00    +0.004 A 
ATOM     11  C   UNL     1     -29.049 -15.062  14.573  0.00  0.00    +0.001 A 
ATOM     12  C   UNL     1     -29.749 -14.450  15.629  0.00  0.00    +0.012 A 
ATOM     13  C   UNL     1     -30.815 -13.607  15.305  0.00  0.00    +0.032 A 
ENDBRANCH   2   5
BRANCH   1  14
ATOM     14  C   UNL     1     -30.566 -12.347  19.756  0.00  0.00    +0.121 C 
BRANCH  14  15
ATOM     15  C   UNL     1     -30.792 -10.939  20.228  0.00  0.00    +0.011 A 
ATOM     16  C   UNL     1     -30.505  -9.777  19.518  0.00  0.00    +0.013 A 
ATOM     17  C   UNL     1     -30.785  -8.609  20.238  0.00  0.00    +0.008 A 
ATOM     18  C   UNL     1     -31.281  -8.845  21.513  0.00  0.00    +0.045 A 
ATOM     19  S   UNL     1     -31.370 -10.508  21.747  0.00  0.00    -0.100 S 
ENDBRANCH  14  15
BRANCH  14  20
ATOM     20  C   UNL     1     -29.237 -12.882  20.313  0.00  0.00    +0.148 C 
BRANCH  20  22
ATOM     21  O   UNL     1     -27.955 -11.787  18.615  0.00  0.00    -0.251 OA
ATOM     22  C   UNL     1     -28.155 -12.841  19.277  0.00  0.00    +0.307 C 
BRANCH  22  23
ATOM     23  O   UNL     1     -27.357 -13.960  19.062  0.00  0.00    -0.481 OA
ATOM     24  H   UNL     1     -26.512 -13.896  18.508  0.00  0.00    +0.295 HD
ENDBRANCH  22  23
ENDBRANCH  20  22
ENDBRANCH  14  20
ENDBRANCH   1  14
TORSDOF 6
ENDMDL
