MODEL 1
REMARK VINA RESULT:    -4.625      0.000      0.000
REMARK INTER + INTRA:          -8.727
REMARK INTER:                  -6.518
REMARK INTRA:                  -2.209
REMARK UNBOUND:                -2.209
REMARK  Name = 
REMARK  7 active torsions:
REMARK  status: ('A' for Active; 'I' for Inactive)
REMARK    1  A    between atoms: S_2  and  N_4
REMARK    2  A    between atoms: S_2  and  C_13
REMARK    3  A    between atoms: N_4  and  C_5
REMARK    4  A    between atoms: C_5  and  C_6
REMARK    5  A    between atoms: C_6  and  C_7
REMARK    6  A    between atoms: C_18  and  O_19
REMARK    7  A    between atoms: O_19  and  C_20
REMARK                            x       y       z     vdW  Elec       q    Type
REMARK                         _______ _______ _______ _____ _____    ______ ____
ROOT
ATOM      1  O   UNL     1     -33.532  -9.668  15.455  0.00  0.00    -0.153 OA
ATOM      2  S   UNL     1     -32.635 -10.852  15.686  0.00  0.00    +0.062 S 
ATOM      3  O   UNL     1     -33.153 -11.600  16.884  0.00  0.00    -0.153 OA
ENDROOT
BRANCH   2   4
ATOM      4  C   UNL     1     -32.661 -11.887  14.250  0.00  0.00    +0.147 A 
ATOM      5  C   UNL     1     -33.759 -11.812  13.380  0.00  0.00    +0.032 A 
ATOM      6  C   UNL     1     -33.807 -12.602  12.232  0.00  0.00    +0.002 A 
ATOM      7  C   UNL     1     -32.757 -13.472  11.939  0.00  0.00    +0.004 A 
ATOM      8  C   UNL     1     -31.653 -13.550  12.790  0.00  0.00    +0.048 A 
ATOM      9  C   UNL     1     -31.590 -12.756  13.954  0.00  0.00    +0.156 A 
BRANCH   9  10
ATOM     10  O   UNL     1     -30.486 -12.798  14.823  0.00  0.00    -0.404 OA
BRANCH  10  11
ATOM     11  C   UNL     1     -30.206 -13.834  15.762  0.00  0.00    +0.575 C 
ATOM     12  F   UNL     1     -28.850 -13.842  16.026  0.00  0.00    -0.133 F 
ATOM     13  F   UNL     1     -30.565 -15.062  15.237  0.00  0.00    -0.133 F 
ATOM     14  F   UNL     1     -30.888 -13.605  16.943  0.00  0.00    -0.133 F 
ENDBRANCH  10  11
ENDBRANCH   9  10
ENDBRANCH   2   4
BRANCH   2  15
ATOM     15  N   UNL     1     -31.024 -10.280  15.998  0.00  0.00    -0.190 NA
ATOM     16  H   UNL     1     -30.368 -10.975  15.572  0.00  0.00    +0.148 HD
BRANCH  15  17
ATOM     17  C   UNL     1     -30.775 -10.239  17.441  0.00  0.00    +0.110 C 
BRANCH  17  18
ATOM     18  C   UNL     1     -29.274 -10.135  17.723  0.00  0.00    +0.053 C 
BRANCH  18  19
ATOM     19  C   UNL     1     -28.791 -11.293  18.557  0.00  0.00    -0.028 A 
ATOM     20  C   UNL     1     -29.667 -11.966  19.422  0.00  0.00    +0.006 A 
ATOM     21  C   UNL     1     -29.213 -13.058  20.163  0.00  0.00    +0.020 A 
ATOM     22  C   UNL     1     -27.888 -13.474  20.027  0.00  0.00    +0.111 A 
ATOM     23  N   UNL     1     -27.053 -12.820  19.176  0.00  0.00    -0.263 NA
ATOM     24  C   UNL     1     -27.471 -11.754  18.443  0.00  0.00    +0.114 A 
ENDBRANCH  18  19
ENDBRANCH  17  18
ENDBRANCH  15  17
ENDBRANCH   2  15
TORSDOF 7
ENDMDL
MODEL 2
REMARK VINA RESULT:    -4.465      1.602      1.985
REMARK INTER + INTRA:          -8.501
REMARK INTER:                  -6.134
REMARK INTRA:                  -2.367
REMARK UNBOUND:                -2.209
REMARK  Name = 
REMARK  7 active torsions:
REMARK  status: ('A' for Active; 'I' for Inactive)
REMARK    1  A    between atoms: S_2  and  N_4
REMARK    2  A    between atoms: S_2  and  C_13
REMARK    3  A    between atoms: N_4  and  C_5
REMARK    4  A    between atoms: C_5  and  C_6
REMARK    5  A    between atoms: C_6  and  C_7
REMARK    6  A    between atoms: C_18  and  O_19
REMARK    7  A    between atoms: O_19  and  C_20
REMARK                            x       y       z     vdW  Elec       q    Type
REMARK                         _______ _______ _______ _____ _____    ______ ____
ROOT
ATOM      1  O   UNL     1     -33.998 -10.175  14.839  0.00  0.00    -0.153 OA
ATOM      2  S   UNL     1     -33.529 -11.400  15.574  0.00  0.00    +0.062 S 
ATOM      3  O   UNL     1     -34.744 -12.161  16.029  0.00  0.00    -0.153 OA
ENDROOT
BRANCH   2   4
ATOM      4  C   UNL     1     -32.550 -12.390  14.482  0.00  0.00    +0.147 A 
ATOM      5  C   UNL     1     -32.871 -12.414  13.117  0.00  0.00    +0.032 A 
ATOM      6  C   UNL     1     -32.112 -13.172  12.225  0.00  0.00    +0.002 A 
ATOM      7  C   UNL     1     -31.023 -13.911  12.687  0.00  0.00    +0.004 A 
ATOM      8  C   UNL     1     -30.685 -13.889  14.042  0.00  0.00    +0.048 A 
ATOM      9  C   UNL     1     -31.442 -13.126  14.955  0.00  0.00    +0.156 A 
BRANCH   9  10
ATOM     10  O   UNL     1     -31.119 -13.068  16.322  0.00  0.00    -0.404 OA
BRANCH  10  11
ATOM     11  C   UNL     1     -31.229 -14.146  17.248  0.00  0.00    +0.575 C 
ATOM     12  F   UNL     1     -30.102 -14.938  17.148  0.00  0.00    -0.133 F 
ATOM     13  F   UNL     1     -32.342 -14.914  16.955  0.00  0.00    -0.133 F 
ATOM     14  F   UNL     1     -31.316 -13.658  18.540  0.00  0.00    -0.133 F 
ENDBRANCH  10  11
ENDBRANCH   9  10
ENDBRANCH   2   4
BRANCH   2  15
ATOM     15  N   UNL     1     -32.594 -10.902  16.951  0.00  0.00    -0.190 NA
ATOM     16  H   UNL     1     -33.258 -10.820  17.755  0.00  0.00    +0.148 HD
BRANCH  15  17
ATOM     17  C   UNL     1     -32.004  -9.583  16.708  0.00  0.00    +0.110 C 
BRANCH  17  18
ATOM     18  C   UNL     1     -30.476  -9.673  16.699  0.00  0.00    +0.053 C 
BRANCH  18  19
ATOM     19  C   UNL     1     -29.955 -10.262  17.985  0.00  0.00    -0.028 A 
ATOM     20  C   UNL     1     -28.911 -11.198  17.972  0.00  0.00    +0.006 A 
ATOM     21  C   UNL     1     -28.416 -11.709  19.173  0.00  0.00    +0.020 A 
ATOM     22  C   UNL     1     -28.967 -11.273  20.380  0.00  0.00    +0.111 A 
ATOM     23  N   UNL     1     -29.971 -10.356  20.378  0.00  0.00    -0.263 NA
ATOM     24  C   UNL     1     -30.469  -9.844  19.222  0.00  0.00    +0.114 A 
ENDBRANCH  18  19
ENDBRANCH  17  18
ENDBRANCH  15  17
ENDBRANCH   2  15
TORSDOF 7
ENDMDL
MODEL 3
REMARK VINA RESULT:    -4.431      2.588      3.782
REMARK INTER + INTRA:          -8.453
REMARK INTER:                  -7.377
REMARK INTRA:                  -1.076
REMARK UNBOUND:                -2.209
REMARK  Name = 
REMARK  7 active torsions:
REMARK  status: ('A' for Active; 'I' for Inactive)
REMARK    1  A    between atoms: S_2  and  N_4
REMARK    2  A    between atoms: S_2  and  C_13
REMARK    3  A    between atoms: N_4  and  C_5
REMARK    4  A    between atoms: C_5  and  C_6
REMARK    5  A    between atoms: C_6  and  C_7
REMARK    6  A    between atoms: C_18  and  O_19
REMARK    7  A    between atoms: O_19  and  C_20
REMARK                            x       y       z     vdW  Elec       q    Type
REMARK                         _______ _______ _______ _____ _____    ______ ____
ROOT
ATOM      1  O   UNL     1     -30.324 -14.959  17.424  0.00  0.00    -0.153 OA
ATOM      2  S   UNL     1     -29.792 -13.625  16.980  0.00  0.00    +0.062 S 
ATOM      3  O   UNL     1     -28.331 -13.788  16.667  0.00  0.00    -0.153 OA
ENDROOT
BRANCH   2   4
ATOM      4  C   UNL     1     -30.680 -13.099  15.541  0.00  0.00    +0.147 A 
ATOM      5  C   UNL     1     -30.669 -13.917  14.401  0.00  0.00    +0.032 A 
ATOM      6  C   UNL     1     -31.369 -13.541  13.255  0.00  0.00    +0.002 A 
ATOM      7  C   UNL     1     -32.089 -12.347  13.236  0.00  0.00    +0.004 A 
ATOM      8  C   UNL     1     -32.117 -11.528  14.366  0.00  0.00    +0.048 A 
ATOM      9  C   UNL     1     -31.415 -11.895  15.534  0.00  0.00    +0.156 A 
BRANCH   9  10
ATOM     10  O   UNL     1     -31.437 -11.102  16.693  0.00  0.00    -0.404 OA
BRANCH  10  11
ATOM     11  C   UNL     1     -31.195  -9.698  16.745  0.00  0.00    +0.575 C 
ATOM     12  F   UNL     1     -30.181  -9.386  15.861  0.00  0.00    -0.133 F 
ATOM     13  F   UNL     1     -30.803  -9.329  18.020  0.00  0.00    -0.133 F 
ATOM     14  F   UNL     1     -32.334  -9.003  16.379  0.00  0.00    -0.133 F 
ENDBRANCH  10  11
ENDBRANCH   9  10
ENDBRANCH   2   4
BRANCH   2  15
ATOM     15  N   UNL     1     -29.996 -12.483  18.274  0.00  0.00    -0.190 NA
ATOM     16  H   UNL     1     -29.092 -11.966  18.368  0.00  0.00    +0.148 HD
BRANCH  15  17
ATOM     17  C   UNL     1     -30.254 -13.190  19.532  0.00  0.00    +0.110 C 
BRANCH  17  18
ATOM     18  C   UNL     1     -29.439 -12.570  20.670  0.00  0.00    +0.053 C 
BRANCH  18  19
ATOM     19  C   UNL     1     -28.042 -13.132  20.712  0.00  0.00    -0.028 A 
ATOM     20  C   UNL     1     -27.689 -14.101  21.663  0.00  0.00    +0.006 A 
ATOM     21  C   UNL     1     -26.400 -14.637  21.668  0.00  0.00    +0.020 A 
ATOM     22  C   UNL     1     -25.476 -14.203  20.716  0.00  0.00    +0.111 A 
ATOM     23  N   UNL     1     -25.835 -13.272  19.793  0.00  0.00    -0.263 NA
ATOM     24  C   UNL     1     -27.084 -12.735  19.767  0.00  0.00    +0.114 A 
ENDBRANCH  18  19
ENDBRANCH  17  18
ENDBRANCH  15  17
ENDBRANCH   2  15
TORSDOF 7
ENDMDL
MODEL 4
REMARK VINA RESULT:    -4.407      2.645      3.791
REMARK INTER + INTRA:          -8.419
REMARK INTER:                  -7.321
REMARK INTRA:                  -1.097
REMARK UNBOUND:                -2.209
REMARK  Name = 
REMARK  7 active torsions:
REMARK  status: ('A' for Active; 'I' for Inactive)
REMARK    1  A    between atoms: S_2  and  N_4
REMARK    2  A    between atoms: S_2  and  C_13
REMARK    3  A    between atoms: N_4  and  C_5
REMARK    4  A    between atoms: C_5  and  C_6
REMARK    5  A    between atoms: C_6  and  C_7
REMARK    6  A    between atoms: C_18  and  O_19
REMARK    7  A    between atoms: O_19  and  C_20
REMARK                            x       y       z     vdW  Elec       q    Type
REMARK                         _______ _______ _______ _____ _____    ______ ____
ROOT
ATOM      1  O   UNL     1     -31.380 -11.941  17.386  0.00  0.00    -0.153 OA
ATOM      2  S   UNL     1     -31.339 -13.440  17.274  0.00  0.00    +0.062 S 
ATOM      3  O   UNL     1     -32.755 -13.946  17.307  0.00  0.00    -0.153 OA
ENDROOT
BRANCH   2   4
ATOM      4  C   UNL     1     -30.557 -13.884  15.749  0.00  0.00    +0.147 A 
ATOM      5  C   UNL     1     -29.293 -14.490  15.787  0.00  0.00    +0.032 A 
ATOM      6  C   UNL     1     -28.653 -14.866  14.606  0.00  0.00    +0.002 A 
ATOM      7  C   UNL     1     -29.271 -14.644  13.375  0.00  0.00    +0.004 A 
ATOM      8  C   UNL     1     -30.534 -14.051  13.323  0.00  0.00    +0.048 A 
ATOM      9  C   UNL     1     -31.194 -13.667  14.509  0.00  0.00    +0.156 A 
BRANCH   9  10
ATOM     10  O   UNL     1     -32.472 -13.083  14.492  0.00  0.00    -0.404 OA
BRANCH  10  11
ATOM     11  C   UNL     1     -32.772 -11.749  14.091  0.00  0.00    +0.575 C 
ATOM     12  F   UNL     1     -33.816 -11.274  14.861  0.00  0.00    -0.133 F 
ATOM     13  F   UNL     1     -33.153 -11.726  12.761  0.00  0.00    -0.133 F 
ATOM     14  F   UNL     1     -31.671 -10.934  14.282  0.00  0.00    -0.133 F 
ENDBRANCH  10  11
ENDBRANCH   9  10
ENDBRANCH   2   4
BRANCH   2  15
ATOM     15  N   UNL     1     -30.451 -14.078  18.624  0.00  0.00    -0.190 NA
ATOM     16  H   UNL     1     -31.115 -14.673  19.170  0.00  0.00    +0.148 HD
BRANCH  15  17
ATOM     17  C   UNL     1     -29.997 -12.986  19.489  0.00  0.00    +0.110 C 
BRANCH  17  18
ATOM     18  C   UNL     1     -29.405 -13.541  20.787  0.00  0.00    +0.053 C 
BRANCH  18  19
ATOM     19  C   UNL     1     -27.904 -13.645  20.704  0.00  0.00    -0.028 A 
ATOM     20  C   UNL     1     -27.199 -14.516  21.549  0.00  0.00    +0.006 A 
ATOM     21  C   UNL     1     -25.812 -14.626  21.437  0.00  0.00    +0.020 A 
ATOM     22  C   UNL     1     -25.141 -13.869  20.475  0.00  0.00    +0.111 A 
ATOM     23  N   UNL     1     -25.838 -13.037  19.655  0.00  0.00    -0.263 NA
ATOM     24  C   UNL     1     -27.189 -12.913  19.744  0.00  0.00    +0.114 A 
ENDBRANCH  18  19
ENDBRANCH  17  18
ENDBRANCH  15  17
ENDBRANCH   2  15
TORSDOF 7
ENDMDL
MODEL 5
REMARK VINA RESULT:    -4.371      3.167      5.203
REMARK INTER + INTRA:          -8.368
REMARK INTER:                  -5.341
REMARK INTRA:                  -3.028
REMARK UNBOUND:                -2.209
REMARK  Name = 
REMARK  7 active torsions:
REMARK  status: ('A' for Active; 'I' for Inactive)
REMARK    1  A    between atoms: S_2  and  N_4
REMARK    2  A    between atoms: S_2  and  C_13
REMARK    3  A    between atoms: N_4  and  C_5
REMARK    4  A    between atoms: C_5  and  C_6
REMARK    5  A    between atoms: C_6  and  C_7
REMARK    6  A    between atoms: C_18  and  O_19
REMARK    7  A    between atoms: O_19  and  C_20
REMARK                            x       y       z     vdW  Elec       q    Type
REMARK                         _______ _______ _______ _____ _____    ______ ____
ROOT
ATOM      1  O   UNL     1     -28.457 -10.148  17.602  0.00  0.00    -0.153 OA
ATOM      2  S   UNL     1     -29.929 -10.141  17.295  0.00  0.00    +0.062 S 
ATOM      3  O   UNL     1     -30.163  -9.180  16.163  0.00  0.00    -0.153 OA
ENDROOT
BRANCH   2   4
ATOM      4  C   UNL     1     -30.431 -11.775  16.835  0.00  0.00    +0.147 A 
ATOM      5  C   UNL     1     -30.786 -12.025  15.501  0.00  0.00    +0.032 A 
ATOM      6  C   UNL     1     -31.172 -13.304  15.100  0.00  0.00    +0.002 A 
ATOM      7  C   UNL     1     -31.205 -14.347  16.026  0.00  0.00    +0.004 A 
ATOM      8  C   UNL     1     -30.845 -14.115  17.355  0.00  0.00    +0.048 A 
ATOM      9  C   UNL     1     -30.450 -12.827  17.775  0.00  0.00    +0.156 A 
BRANCH   9  10
ATOM     10  O   UNL     1     -30.065 -12.564  19.101  0.00  0.00    -0.404 OA
BRANCH  10  11
ATOM     11  C   UNL     1     -30.890 -12.720  20.253  0.00  0.00    +0.575 C 
ATOM     12  F   UNL     1     -30.559 -11.747  21.175  0.00  0.00    -0.133 F 
ATOM     13  F   UNL     1     -30.682 -13.964  20.823  0.00  0.00    -0.133 F 
ATOM     14  F   UNL     1     -32.223 -12.573  19.910  0.00  0.00    -0.133 F 
ENDBRANCH  10  11
ENDBRANCH   9  10
ENDBRANCH   2   4
BRANCH   2  15
ATOM     15  N   UNL     1     -30.792  -9.612  18.708  0.00  0.00    -0.190 NA
ATOM     16  H   UNL     1     -31.153 -10.471  19.182  0.00  0.00    +0.148 HD
BRANCH  15  17
ATOM     17  C   UNL     1     -31.939  -8.788  18.317  0.00  0.00    +0.110 C 
BRANCH  17  18
ATOM     18  C   UNL     1     -33.243  -9.573  18.482  0.00  0.00    +0.053 C 
BRANCH  18  19
ATOM     19  C   UNL     1     -33.731 -10.107  17.160  0.00  0.00    -0.028 A 
ATOM     20  C   UNL     1     -33.598  -9.348  15.988  0.00  0.00    +0.006 A 
ATOM     21  C   UNL     1     -34.024  -9.870  14.766  0.00  0.00    +0.020 A 
ATOM     22  C   UNL     1     -34.574 -11.153  14.725  0.00  0.00    +0.111 A 
ATOM     23  N   UNL     1     -34.686 -11.883  15.867  0.00  0.00    -0.263 NA
ATOM     24  C   UNL     1     -34.278 -11.396  17.069  0.00  0.00    +0.114 A 
ENDBRANCH  18  19
ENDBRANCH  17  18
ENDBRANCH  15  17
ENDBRANCH   2  15
TORSDOF 7
ENDMDL
MODEL 6
REMARK VINA RESULT:    -4.297      4.024      5.120
REMARK INTER + INTRA:          -8.263
REMARK INTER:                  -5.349
REMARK INTRA:                  -2.914
REMARK UNBOUND:                -2.209
REMARK  Name = 
REMARK  7 active torsions:
REMARK  status: ('A' for Active; 'I' for Inactive)
REMARK    1  A    between atoms: S_2  and  N_4
REMARK    2  A    between atoms: S_2  and  C_13
REMARK    3  A    between atoms: N_4  and  C_5
REMARK    4  A    between atoms: C_5  and  C_6
REMARK    5  A    between atoms: C_6  and  C_7
REMARK    6  A    between atoms: C_18  and  O_19
REMARK    7  A    between atoms: O_19  and  C_20
REMARK                            x       y       z     vdW  Elec       q    Type
REMARK                         _______ _______ _______ _____ _____    ______ ____
ROOT
ATOM      1  O   UNL     1     -28.688  -9.959  18.794  0.00  0.00    -0.153 OA
ATOM      2  S   UNL     1     -30.098  -9.735  19.263  0.00  0.00    +0.062 S 
ATOM      3  O   UNL     1     -30.225  -8.296  19.682  0.00  0.00    -0.153 OA
ENDROOT
BRANCH   2   4
ATOM      4  C   UNL     1     -31.213 -10.095  17.937  0.00  0.00    +0.147 A 
ATOM      5  C   UNL     1     -30.744 -10.018  16.617  0.00  0.00    +0.032 A 
ATOM      6  C   UNL     1     -31.591 -10.309  15.547  0.00  0.00    +0.002 A 
ATOM      7  C   UNL     1     -32.913 -10.683  15.784  0.00  0.00    +0.004 A 
ATOM      8  C   UNL     1     -33.391 -10.774  17.093  0.00  0.00    +0.048 A 
ATOM      9  C   UNL     1     -32.546 -10.485  18.185  0.00  0.00    +0.156 A 
BRANCH   9  10
ATOM     10  O   UNL     1     -32.991 -10.583  19.515  0.00  0.00    -0.404 OA
BRANCH  10  11
ATOM     11  C   UNL     1     -33.757  -9.602  20.210  0.00  0.00    +0.575 C 
ATOM     12  F   UNL     1     -32.905  -8.832  20.978  0.00  0.00    -0.133 F 
ATOM     13  F   UNL     1     -34.674 -10.216  21.043  0.00  0.00    -0.133 F 
ATOM     14  F   UNL     1     -34.410  -8.780  19.310  0.00  0.00    -0.133 F 
ENDBRANCH  10  11
ENDBRANCH   9  10
ENDBRANCH   2   4
BRANCH   2  15
ATOM     15  N   UNL     1     -30.408 -10.775  20.621  0.00  0.00    -0.190 NA
ATOM     16  H   UNL     1     -30.126 -10.248  21.478  0.00  0.00    +0.148 HD
BRANCH  15  17
ATOM     17  C   UNL     1     -29.579 -11.980  20.530  0.00  0.00    +0.110 C 
BRANCH  17  18
ATOM     18  C   UNL     1     -30.412 -13.167  20.038  0.00  0.00    +0.053 C 
BRANCH  18  19
ATOM     19  C   UNL     1     -30.066 -13.527  18.616  0.00  0.00    -0.028 A 
ATOM     20  C   UNL     1     -31.044 -14.035  17.748  0.00  0.00    +0.006 A 
ATOM     21  C   UNL     1     -30.716 -14.333  16.425  0.00  0.00    +0.020 A 
ATOM     22  C   UNL     1     -29.413 -14.111  15.977  0.00  0.00    +0.111 A 
ATOM     23  N   UNL     1     -28.478 -13.606  16.826  0.00  0.00    -0.263 NA
ATOM     24  C   UNL     1     -28.772 -13.309  18.119  0.00  0.00    +0.114 A 
ENDBRANCH  18  19
ENDBRANCH  17  18
ENDBRANCH  15  17
ENDBRANCH   2  15
TORSDOF 7
ENDMDL
MODEL 7
REMARK VINA RESULT:    -4.279      2.236      3.391
REMARK INTER + INTRA:          -8.238
REMARK INTER:                  -6.564
REMARK INTRA:                  -1.674
REMARK UNBOUND:                -2.209
REMARK  Name = 
REMARK  7 active torsions:
REMARK  status: ('A' for Active; 'I' for Inactive)
REMARK    1  A    between atoms: S_2  and  N_4
REMARK    2  A    between atoms: S_2  and  C_13
REMARK    3  A    between atoms: N_4  and  C_5
REMARK    4  A    between atoms: C_5  and  C_6
REMARK    5  A    between atoms: C_6  and  C_7
REMARK    6  A    between atoms: C_18  and  O_19
REMARK    7  A    between atoms: O_19  and  C_20
REMARK                            x       y       z     vdW  Elec       q    Type
REMARK                         _______ _______ _______ _____ _____    ______ ____
ROOT
ATOM      1  O   UNL     1     -30.315 -14.783  17.457  0.00  0.00    -0.153 OA
ATOM      2  S   UNL     1     -29.682 -13.641  16.711  0.00  0.00    +0.062 S 
ATOM      3  O   UNL     1     -28.216 -13.941  16.562  0.00  0.00    -0.153 OA
ENDROOT
BRANCH   2   4
ATOM      4  C   UNL     1     -30.449 -13.493  15.123  0.00  0.00    +0.147 A 
ATOM      5  C   UNL     1     -29.937 -14.237  14.049  0.00  0.00    +0.032 A 
ATOM      6  C   UNL     1     -30.525 -14.155  12.787  0.00  0.00    +0.002 A 
ATOM      7  C   UNL     1     -31.633 -13.332  12.585  0.00  0.00    +0.004 A 
ATOM      8  C   UNL     1     -32.160 -12.593  13.646  0.00  0.00    +0.048 A 
ATOM      9  C   UNL     1     -31.577 -12.667  14.928  0.00  0.00    +0.156 A 
BRANCH   9  10
ATOM     10  O   UNL     1     -32.093 -11.950  16.021  0.00  0.00    -0.404 OA
BRANCH  10  11
ATOM     11  C   UNL     1     -33.260 -12.293  16.764  0.00  0.00    +0.575 C 
ATOM     12  F   UNL     1     -33.125 -13.583  17.239  0.00  0.00    -0.133 F 
ATOM     13  F   UNL     1     -34.378 -12.233  15.951  0.00  0.00    -0.133 F 
ATOM     14  F   UNL     1     -33.410 -11.436  17.840  0.00  0.00    -0.133 F 
ENDBRANCH  10  11
ENDBRANCH   9  10
ENDBRANCH   2   4
BRANCH   2  15
ATOM     15  N   UNL     1     -29.898 -12.184  17.632  0.00  0.00    -0.190 NA
ATOM     16  H   UNL     1     -28.982 -11.680  17.621  0.00  0.00    +0.148 HD
BRANCH  15  17
ATOM     17  C   UNL     1     -30.224 -12.511  19.023  0.00  0.00    +0.110 C 
BRANCH  17  18
ATOM     18  C   UNL     1     -29.235 -11.837  19.977  0.00  0.00    +0.053 C 
BRANCH  18  19
ATOM     19  C   UNL     1     -28.093 -12.757  20.323  0.00  0.00    -0.028 A 
ATOM     20  C   UNL     1     -28.225 -13.710  21.344  0.00  0.00    +0.006 A 
ATOM     21  C   UNL     1     -27.170 -14.577  21.630  0.00  0.00    +0.020 A 
ATOM     22  C   UNL     1     -25.992 -14.490  20.886  0.00  0.00    +0.111 A 
ATOM     23  N   UNL     1     -25.882 -13.570  19.891  0.00  0.00    -0.263 NA
ATOM     24  C   UNL     1     -26.895 -12.714  19.594  0.00  0.00    +0.114 A 
ENDBRANCH  18  19
ENDBRANCH  17  18
ENDBRANCH  15  17
ENDBRANCH   2  15
TORSDOF 7
ENDMDL
MODEL 8
REMARK VINA RESULT:    -4.196      2.741      4.040
REMARK INTER + INTRA:          -8.121
REMARK INTER:                  -6.094
REMARK INTRA:                  -2.028
REMARK UNBOUND:                -2.209
REMARK  Name = 
REMARK  7 active torsions:
REMARK  status: ('A' for Active; 'I' for Inactive)
REMARK    1  A    between atoms: S_2  and  N_4
REMARK    2  A    between atoms: S_2  and  C_13
REMARK    3  A    between atoms: N_4  and  C_5
REMARK    4  A    between atoms: C_5  and  C_6
REMARK    5  A    between atoms: C_6  and  C_7
REMARK    6  A    between atoms: C_18  and  O_19
REMARK    7  A    between atoms: O_19  and  C_20
REMARK                            x       y       z     vdW  Elec       q    Type
REMARK                         _______ _______ _______ _____ _____    ______ ____
ROOT
ATOM      1  O   UNL     1     -30.177 -14.646  17.550  0.00  0.00    -0.153 OA
ATOM      2  S   UNL     1     -29.464 -13.592  16.750  0.00  0.00    +0.062 S 
ATOM      3  O   UNL     1     -28.254 -14.226  16.121  0.00  0.00    -0.153 OA
ENDROOT
BRANCH   2   4
ATOM      4  C   UNL     1     -30.558 -12.974  15.503  0.00  0.00    +0.147 A 
ATOM      5  C   UNL     1     -30.712 -13.702  14.314  0.00  0.00    +0.032 A 
ATOM      6  C   UNL     1     -31.577 -13.253  13.316  0.00  0.00    +0.002 A 
ATOM      7  C   UNL     1     -32.299 -12.073  13.497  0.00  0.00    +0.004 A 
ATOM      8  C   UNL     1     -32.164 -11.344  14.679  0.00  0.00    +0.048 A 
ATOM      9  C   UNL     1     -31.295 -11.786  15.698  0.00  0.00    +0.156 A 
BRANCH   9  10
ATOM     10  O   UNL     1     -31.149 -11.084  16.907  0.00  0.00    -0.404 OA
BRANCH  10  11
ATOM     11  C   UNL     1     -30.890  -9.688  17.032  0.00  0.00    +0.575 C 
ATOM     12  F   UNL     1     -30.114  -9.281  15.964  0.00  0.00    -0.133 F 
ATOM     13  F   UNL     1     -30.201  -9.435  18.205  0.00  0.00    -0.133 F 
ATOM     14  F   UNL     1     -32.077  -8.979  17.016  0.00  0.00    -0.133 F 
ENDBRANCH  10  11
ENDBRANCH   9  10
ENDBRANCH   2   4
BRANCH   2  15
ATOM     15  N   UNL     1     -28.974 -12.314  17.820  0.00  0.00    -0.190 NA
ATOM     16  H   UNL     1     -28.438 -11.624  17.244  0.00  0.00    +0.148 HD
BRANCH  15  17
ATOM     17  C   UNL     1     -28.080 -12.840  18.855  0.00  0.00    +0.110 C 
BRANCH  17  18
ATOM     18  C   UNL     1     -28.878 -13.238  20.099  0.00  0.00    +0.053 C 
BRANCH  18  19
ATOM     19  C   UNL     1     -29.938 -12.216  20.420  0.00  0.00    -0.028 A 
ATOM     20  C   UNL     1     -31.288 -12.473  20.141  0.00  0.00    +0.006 A 
ATOM     21  C   UNL     1     -32.262 -11.531  20.475  0.00  0.00    +0.020 A 
ATOM     22  C   UNL     1     -31.877 -10.340  21.094  0.00  0.00    +0.111 A 
ATOM     23  N   UNL     1     -30.566 -10.109  21.370  0.00  0.00    -0.263 NA
ATOM     24  C   UNL     1     -29.599 -11.011  21.054  0.00  0.00    +0.114 A 
ENDBRANCH  18  19
ENDBRANCH  17  18
ENDBRANCH  15  17
ENDBRANCH   2  15
TORSDOF 7
ENDMDL
MODEL 9
REMARK VINA RESULT:    -4.149      3.174      6.661
REMARK INTER + INTRA:          -8.055
REMARK INTER:                  -6.275
REMARK INTRA:                  -1.780
REMARK UNBOUND:                -2.209
REMARK  Name = 
REMARK  7 active torsions:
REMARK  status: ('A' for Active; 'I' for Inactive)
REMARK    1  A    between atoms: S_2  and  N_4
REMARK    2  A    between atoms: S_2  and  C_13
REMARK    3  A    between atoms: N_4  and  C_5
REMARK    4  A    between atoms: C_5  and  C_6
REMARK    5  A    between atoms: C_6  and  C_7
REMARK    6  A    between atoms: C_18  and  O_19
REMARK    7  A    between atoms: O_19  and  C_20
REMARK                            x       y       z     vdW  Elec       q    Type
REMARK                         _______ _______ _______ _____ _____    ______ ____
ROOT
ATOM      1  O   UNL     1     -26.620 -11.249  18.406  0.00  0.00    -0.153 OA
ATOM      2  S   UNL     1     -27.818 -12.136  18.602  0.00  0.00    +0.062 S 
ATOM      3  O   UNL     1     -27.333 -13.466  19.109  0.00  0.00    -0.153 OA
ENDROOT
BRANCH   2   4
ATOM      4  C   UNL     1     -28.908 -11.385  19.777  0.00  0.00    +0.147 A 
ATOM      5  C   UNL     1     -28.902 -11.849  21.101  0.00  0.00    +0.032 A 
ATOM      6  C   UNL     1     -29.737 -11.270  22.057  0.00  0.00    +0.002 A 
ATOM      7  C   UNL     1     -30.584 -10.220  21.701  0.00  0.00    +0.004 A 
ATOM      8  C   UNL     1     -30.592  -9.741  20.390  0.00  0.00    +0.048 A 
ATOM      9  C   UNL     1     -29.752 -10.315  19.412  0.00  0.00    +0.156 A 
BRANCH   9  10
ATOM     10  O   UNL     1     -29.725  -9.845  18.088  0.00  0.00    -0.404 OA
BRANCH  10  11
ATOM     11  C   UNL     1     -30.848  -9.752  17.215  0.00  0.00    +0.575 C 
ATOM     12  F   UNL     1     -31.621 -10.888  17.359  0.00  0.00    -0.133 F 
ATOM     13  F   UNL     1     -30.424  -9.664  15.901  0.00  0.00    -0.133 F 
ATOM     14  F   UNL     1     -31.615  -8.648  17.540  0.00  0.00    -0.133 F 
ENDBRANCH  10  11
ENDBRANCH   9  10
ENDBRANCH   2   4
BRANCH   2  15
ATOM     15  N   UNL     1     -28.617 -12.343  17.073  0.00  0.00    -0.190 NA
ATOM     16  H   UNL     1     -29.215 -11.498  16.926  0.00  0.00    +0.148 HD
BRANCH  15  17
ATOM     17  C   UNL     1     -29.489 -13.520  17.116  0.00  0.00    +0.110 C 
BRANCH  17  18
ATOM     18  C   UNL     1     -29.282 -14.385  15.870  0.00  0.00    +0.053 C 
BRANCH  18  19
ATOM     19  C   UNL     1     -30.182 -13.948  14.743  0.00  0.00    -0.028 A 
ATOM     20  C   UNL     1     -31.308 -13.150  14.995  0.00  0.00    +0.006 A 
ATOM     21  C   UNL     1     -32.113 -12.726  13.937  0.00  0.00    +0.020 A 
ATOM     22  C   UNL     1     -31.780 -13.097  12.633  0.00  0.00    +0.111 A 
ATOM     23  N   UNL     1     -30.679 -13.860  12.402  0.00  0.00    -0.263 NA
ATOM     24  C   UNL     1     -29.879 -14.287  13.416  0.00  0.00    +0.114 A 
ENDBRANCH  18  19
ENDBRANCH  17  18
ENDBRANCH  15  17
ENDBRANCH   2  15
TORSDOF 7
ENDMDL
