MODEL 1
REMARK VINA RESULT:    -4.506      0.000      0.000
REMARK INTER + INTRA:          -5.685
REMARK INTER:                  -5.033
REMARK INTRA:                  -0.652
REMARK UNBOUND:                -0.652
REMARK  Name = 
REMARK  2 active torsions:
REMARK  status: ('A' for Active; 'I' for Inactive)
REMARK    1  A    between atoms: C_7  and  S_9
REMARK    2  A    between atoms: S_9  and  C_10
REMARK                            x       y       z     vdW  Elec       q    Type
REMARK                         _______ _______ _______ _____ _____    ______ ____
ROOT
ATOM      1  C   UNL     1     -29.717 -12.929  17.454  0.00  0.00    +0.114 A 
ATOM      2  N   UNL     1     -28.461 -13.020  17.982  0.00  0.00    -0.228 NA
ATOM      3  C   UNL     1     -27.741 -11.901  18.311  0.00  0.00    +0.224 A 
ATOM      4  N   UNL     1     -28.270 -10.655  18.121  0.00  0.00    -0.218 NA
ATOM      5  C   UNL     1     -29.517 -10.560  17.601  0.00  0.00    +0.142 A 
ATOM      6  N   UNL     1     -30.192  -9.427  17.361  0.00  0.00    -0.346 N 
ATOM      7  C   UNL     1     -31.389  -9.820  16.865  0.00  0.00    +0.085 A 
ATOM      8  C   UNL     1     -31.465 -11.209  16.794  0.00  0.00    +0.031 A 
ATOM      9  C   UNL     1     -30.251 -11.658  17.268  0.00  0.00    +0.051 A 
ATOM     10  H   UNL     1     -29.869  -8.448  17.527  0.00  0.00    +0.167 HD
ENDROOT
BRANCH   1  11
ATOM     11  S   UNL     1     -30.625 -14.412  17.023  0.00  0.00    -0.066 S 
BRANCH  11  18
ATOM     12  F   UNL     1     -27.041 -15.062  13.379  0.00  0.00    -0.205 F 
ATOM     13  C   UNL     1     -28.315 -14.708  13.678  0.00  0.00    +0.125 A 
ATOM     14  C   UNL     1     -29.186 -14.306  12.659  0.00  0.00    +0.041 A 
ATOM     15  C   UNL     1     -30.500 -13.943  12.966  0.00  0.00    +0.042 A 
ATOM     16  C   UNL     1     -30.947 -13.976  14.291  0.00  0.00    +0.137 A 
ATOM     17  F   UNL     1     -32.228 -13.634  14.572  0.00  0.00    -0.204 F 
ATOM     18  C   UNL     1     -30.073 -14.369  15.316  0.00  0.00    +0.052 A 
ATOM     19  C   UNL     1     -28.758 -14.742  15.003  0.00  0.00    +0.056 A 
ENDBRANCH  11  18
ENDBRANCH   1  11
TORSDOF 2
ENDMDL
MODEL 2
REMARK VINA RESULT:    -4.373      0.892      2.129
REMARK INTER + INTRA:          -5.536
REMARK INTER:                  -4.904
REMARK INTRA:                  -0.632
REMARK UNBOUND:                -0.652
REMARK  Name = 
REMARK  2 active torsions:
REMARK  status: ('A' for Active; 'I' for Inactive)
REMARK    1  A    between atoms: C_7  and  S_9
REMARK    2  A    between atoms: S_9  and  C_10
REMARK                            x       y       z     vdW  Elec       q    Type
REMARK                         _______ _______ _______ _____ _____    ______ ____
ROOT
ATOM      1  C   UNL     1     -30.782 -12.457  16.742  0.00  0.00    +0.114 A 
ATOM      2  N   UNL     1     -31.531 -11.492  16.132  0.00  0.00    -0.228 NA
ATOM      3  C   UNL     1     -31.255 -10.159  16.298  0.00  0.00    +0.224 A 
ATOM      4  N   UNL     1     -30.210  -9.761  17.083  0.00  0.00    -0.218 NA
ATOM      5  C   UNL     1     -29.461 -10.714  17.687  0.00  0.00    +0.142 A 
ATOM      6  N   UNL     1     -28.397 -10.505  18.476  0.00  0.00    -0.346 N 
ATOM      7  C   UNL     1     -27.965 -11.739  18.830  0.00  0.00    +0.085 A 
ATOM      8  C   UNL     1     -28.763 -12.728  18.260  0.00  0.00    +0.031 A 
ATOM      9  C   UNL     1     -29.716 -12.043  17.535  0.00  0.00    +0.051 A 
ATOM     10  H   UNL     1     -27.983  -9.588  18.754  0.00  0.00    +0.167 HD
ENDROOT
BRANCH   1  11
ATOM     11  S   UNL     1     -31.180 -14.189  16.514  0.00  0.00    -0.066 S 
BRANCH  11  18
ATOM     12  F   UNL     1     -27.007 -15.061  13.620  0.00  0.00    -0.205 F 
ATOM     13  C   UNL     1     -28.316 -14.708  13.660  0.00  0.00    +0.125 A 
ATOM     14  C   UNL     1     -28.994 -14.405  12.475  0.00  0.00    +0.041 A 
ATOM     15  C   UNL     1     -30.344 -14.043  12.516  0.00  0.00    +0.042 A 
ATOM     16  C   UNL     1     -31.017 -13.978  13.741  0.00  0.00    +0.137 A 
ATOM     17  F   UNL     1     -32.330 -13.639  13.765  0.00  0.00    -0.204 F 
ATOM     18  C   UNL     1     -30.335 -14.272  14.932  0.00  0.00    +0.052 A 
ATOM     19  C   UNL     1     -28.985 -14.644  14.886  0.00  0.00    +0.056 A 
ENDBRANCH  11  18
ENDBRANCH   1  11
TORSDOF 2
ENDMDL
MODEL 3
REMARK VINA RESULT:    -4.172      1.576      3.038
REMARK INTER + INTRA:          -5.311
REMARK INTER:                  -4.627
REMARK INTRA:                  -0.684
REMARK UNBOUND:                -0.652
REMARK  Name = 
REMARK  2 active torsions:
REMARK  status: ('A' for Active; 'I' for Inactive)
REMARK    1  A    between atoms: C_7  and  S_9
REMARK    2  A    between atoms: S_9  and  C_10
REMARK                            x       y       z     vdW  Elec       q    Type
REMARK                         _______ _______ _______ _____ _____    ______ ____
ROOT
ATOM      1  C   UNL     1     -30.747 -12.092  17.268  0.00  0.00    +0.114 A 
ATOM      2  N   UNL     1     -31.003 -10.903  16.648  0.00  0.00    -0.228 NA
ATOM      3  C   UNL     1     -30.192  -9.812  16.828  0.00  0.00    +0.224 A 
ATOM      4  N   UNL     1     -29.095  -9.891  17.637  0.00  0.00    -0.218 NA
ATOM      5  C   UNL     1     -28.834 -11.070  18.252  0.00  0.00    +0.142 A 
ATOM      6  N   UNL     1     -27.799 -11.329  19.065  0.00  0.00    -0.346 N 
ATOM      7  C   UNL     1     -27.938 -12.628  19.420  0.00  0.00    +0.085 A 
ATOM      8  C   UNL     1     -29.067 -13.187  18.827  0.00  0.00    +0.031 A 
ATOM      9  C   UNL     1     -29.624 -12.166  18.086  0.00  0.00    +0.051 A 
ATOM     10  H   UNL     1     -27.041 -10.672  19.357  0.00  0.00    +0.167 HD
ENDROOT
BRANCH   1  11
ATOM     11  S   UNL     1     -31.835 -13.494  17.020  0.00  0.00    -0.066 S 
BRANCH  11  18
ATOM     12  F   UNL     1     -32.291 -12.780  11.938  0.00  0.00    -0.205 F 
ATOM     13  C   UNL     1     -31.592 -13.343  12.954  0.00  0.00    +0.125 A 
ATOM     14  C   UNL     1     -30.458 -14.115  12.678  0.00  0.00    +0.041 A 
ATOM     15  C   UNL     1     -29.736 -14.693  13.725  0.00  0.00    +0.042 A 
ATOM     16  C   UNL     1     -30.146 -14.506  15.050  0.00  0.00    +0.137 A 
ATOM     17  F   UNL     1     -29.428 -15.062  16.056  0.00  0.00    -0.204 F 
ATOM     18  C   UNL     1     -31.289 -13.740  15.328  0.00  0.00    +0.052 A 
ATOM     19  C   UNL     1     -32.005 -13.153  14.276  0.00  0.00    +0.056 A 
ENDBRANCH  11  18
ENDBRANCH   1  11
TORSDOF 2
ENDMDL
MODEL 4
REMARK VINA RESULT:    -4.021      2.393      4.139
REMARK INTER + INTRA:          -5.143
REMARK INTER:                  -4.539
REMARK INTRA:                  -0.604
REMARK UNBOUND:                -0.652
REMARK  Name = 
REMARK  2 active torsions:
REMARK  status: ('A' for Active; 'I' for Inactive)
REMARK    1  A    between atoms: C_7  and  S_9
REMARK    2  A    between atoms: S_9  and  C_10
REMARK                            x       y       z     vdW  Elec       q    Type
REMARK                         _______ _______ _______ _____ _____    ______ ____
ROOT
ATOM      1  C   UNL     1     -29.165 -12.220  19.109  0.00  0.00    +0.114 A 
ATOM      2  N   UNL     1     -28.505 -11.456  18.189  0.00  0.00    -0.228 NA
ATOM      3  C   UNL     1     -27.136 -11.397  18.157  0.00  0.00    +0.224 A 
ATOM      4  N   UNL     1     -26.391 -12.112  19.052  0.00  0.00    -0.218 NA
ATOM      5  C   UNL     1     -27.040 -12.874  19.964  0.00  0.00    +0.142 A 
ATOM      6  N   UNL     1     -26.472 -13.646  20.902  0.00  0.00    -0.346 N 
ATOM      7  C   UNL     1     -27.502 -14.227  21.561  0.00  0.00    +0.085 A 
ATOM      8  C   UNL     1     -28.724 -13.818  21.033  0.00  0.00    +0.031 A 
ATOM      9  C   UNL     1     -28.399 -12.949  20.013  0.00  0.00    +0.051 A 
ATOM     10  H   UNL     1     -25.452 -13.778  21.084  0.00  0.00    +0.167 HD
ENDROOT
BRANCH   1  11
ATOM     11  S   UNL     1     -30.956 -12.263  19.130  0.00  0.00    -0.066 S 
BRANCH  11  18
ATOM     12  F   UNL     1     -31.741 -11.044  14.185  0.00  0.00    -0.205 F 
ATOM     13  C   UNL     1     -31.447 -12.010  15.091  0.00  0.00    +0.125 A 
ATOM     14  C   UNL     1     -31.235 -13.325  14.666  0.00  0.00    +0.041 A 
ATOM     15  C   UNL     1     -30.930 -14.320  15.599  0.00  0.00    +0.042 A 
ATOM     16  C   UNL     1     -30.839 -14.005  16.959  0.00  0.00    +0.137 A 
ATOM     17  F   UNL     1     -30.529 -14.977  17.851  0.00  0.00    -0.204 F 
ATOM     18  C   UNL     1     -31.061 -12.687  17.388  0.00  0.00    +0.052 A 
ATOM     19  C   UNL     1     -31.357 -11.690  16.449  0.00  0.00    +0.056 A 
ENDBRANCH  11  18
ENDBRANCH   1  11
TORSDOF 2
ENDMDL
MODEL 5
REMARK VINA RESULT:    -3.968      2.783      4.794
REMARK INTER + INTRA:          -5.084
REMARK INTER:                  -4.407
REMARK INTRA:                  -0.677
REMARK UNBOUND:                -0.652
REMARK  Name = 
REMARK  2 active torsions:
REMARK  status: ('A' for Active; 'I' for Inactive)
REMARK    1  A    between atoms: C_7  and  S_9
REMARK    2  A    between atoms: S_9  and  C_10
REMARK                            x       y       z     vdW  Elec       q    Type
REMARK                         _______ _______ _______ _____ _____    ______ ____
ROOT
ATOM      1  C   UNL     1     -30.264 -14.381  15.450  0.00  0.00    +0.114 A 
ATOM      2  N   UNL     1     -29.047 -14.976  15.275  0.00  0.00    -0.228 NA
ATOM      3  C   UNL     1     -28.463 -15.062  14.038  0.00  0.00    +0.224 A 
ATOM      4  N   UNL     1     -29.090 -14.547  12.939  0.00  0.00    -0.218 NA
ATOM      5  C   UNL     1     -30.295 -13.952  13.107  0.00  0.00    +0.142 A 
ATOM      6  N   UNL     1     -31.040 -13.384  12.147  0.00  0.00    -0.346 N 
ATOM      7  C   UNL     1     -32.139 -12.910  12.780  0.00  0.00    +0.085 A 
ATOM      8  C   UNL     1     -32.083 -13.182  14.145  0.00  0.00    +0.031 A 
ATOM      9  C   UNL     1     -30.893 -13.854  14.326  0.00  0.00    +0.051 A 
ATOM     10  H   UNL     1     -30.819 -13.314  11.129  0.00  0.00    +0.167 HD
ENDROOT
BRANCH   1  11
ATOM     11  S   UNL     1     -31.003 -14.298  17.079  0.00  0.00    -0.066 S 
BRANCH  11  18
ATOM     12  F   UNL     1     -26.739 -11.929  18.739  0.00  0.00    -0.205 F 
ATOM     13  C   UNL     1     -28.022 -11.808  18.316  0.00  0.00    +0.125 A 
ATOM     14  C   UNL     1     -28.616 -10.544  18.238  0.00  0.00    +0.041 A 
ATOM     15  C   UNL     1     -29.937 -10.419  17.799  0.00  0.00    +0.042 A 
ATOM     16  C   UNL     1     -30.669 -11.556  17.442  0.00  0.00    +0.137 A 
ATOM     17  F   UNL     1     -31.945 -11.418  17.005  0.00  0.00    -0.204 F 
ATOM     18  C   UNL     1     -30.078 -12.826  17.528  0.00  0.00    +0.052 A 
ATOM     19  C   UNL     1     -28.750 -12.947  17.959  0.00  0.00    +0.056 A 
ENDBRANCH  11  18
ENDBRANCH   1  11
TORSDOF 2
ENDMDL
MODEL 6
REMARK VINA RESULT:    -3.900      1.254      2.187
REMARK INTER + INTRA:          -5.007
REMARK INTER:                  -4.444
REMARK INTRA:                  -0.563
REMARK UNBOUND:                -0.652
REMARK  Name = 
REMARK  2 active torsions:
REMARK  status: ('A' for Active; 'I' for Inactive)
REMARK    1  A    between atoms: C_7  and  S_9
REMARK    2  A    between atoms: S_9  and  C_10
REMARK                            x       y       z     vdW  Elec       q    Type
REMARK                         _______ _______ _______ _____ _____    ______ ____
ROOT
ATOM      1  C   UNL     1     -30.479 -12.358  17.279  0.00  0.00    +0.114 A 
ATOM      2  N   UNL     1     -29.220 -12.239  17.794  0.00  0.00    -0.228 NA
ATOM      3  C   UNL     1     -28.645 -11.013  18.003  0.00  0.00    +0.224 A 
ATOM      4  N   UNL     1     -29.326  -9.868  17.700  0.00  0.00    -0.218 NA
ATOM      5  C   UNL     1     -30.576  -9.980  17.192  0.00  0.00    +0.142 A 
ATOM      6  N   UNL     1     -31.388  -8.968  16.854  0.00  0.00    -0.346 N 
ATOM      7  C   UNL     1     -32.528  -9.554  16.415  0.00  0.00    +0.085 A 
ATOM      8  C   UNL     1     -32.430 -10.942  16.480  0.00  0.00    +0.031 A 
ATOM      9  C   UNL     1     -31.168 -11.187  16.978  0.00  0.00    +0.051 A 
ATOM     10  H   UNL     1     -31.190  -7.945  16.919  0.00  0.00    +0.167 HD
ENDROOT
BRANCH   1  11
ATOM     11  S   UNL     1     -31.195 -13.978  17.007  0.00  0.00    -0.066 S 
BRANCH  11  18
ATOM     12  F   UNL     1     -31.990 -13.493  11.940  0.00  0.00    -0.205 F 
ATOM     13  C   UNL     1     -31.118 -13.786  12.936  0.00  0.00    +0.125 A 
ATOM     14  C   UNL     1     -29.801 -14.140  12.630  0.00  0.00    +0.041 A 
ATOM     15  C   UNL     1     -28.901 -14.438  13.657  0.00  0.00    +0.042 A 
ATOM     16  C   UNL     1     -29.316 -14.388  14.992  0.00  0.00    +0.137 A 
ATOM     17  F   UNL     1     -28.429 -14.667  15.979  0.00  0.00    -0.204 F 
ATOM     18  C   UNL     1     -30.641 -14.042  15.301  0.00  0.00    +0.052 A 
ATOM     19  C   UNL     1     -31.537 -13.734  14.269  0.00  0.00    +0.056 A 
ENDBRANCH  11  18
ENDBRANCH   1  11
TORSDOF 2
ENDMDL
MODEL 7
REMARK VINA RESULT:    -3.813      2.880      5.179
REMARK INTER + INTRA:          -4.911
REMARK INTER:                  -4.388
REMARK INTRA:                  -0.523
REMARK UNBOUND:                -0.652
REMARK  Name = 
REMARK  2 active torsions:
REMARK  status: ('A' for Active; 'I' for Inactive)
REMARK    1  A    between atoms: C_7  and  S_9
REMARK    2  A    between atoms: S_9  and  C_10
REMARK                            x       y       z     vdW  Elec       q    Type
REMARK                         _______ _______ _______ _____ _____    ______ ____
ROOT
ATOM      1  C   UNL     1     -30.344 -14.339  15.336  0.00  0.00    +0.114 A 
ATOM      2  N   UNL     1     -29.116 -14.930  15.259  0.00  0.00    -0.228 NA
ATOM      3  C   UNL     1     -28.458 -15.062  14.063  0.00  0.00    +0.224 A 
ATOM      4  N   UNL     1     -29.022 -14.598  12.908  0.00  0.00    -0.218 NA
ATOM      5  C   UNL     1     -30.239 -14.008  12.979  0.00  0.00    +0.142 A 
ATOM      6  N   UNL     1     -30.928 -13.486  11.954  0.00  0.00    -0.346 N 
ATOM      7  C   UNL     1     -32.066 -12.996  12.501  0.00  0.00    +0.085 A 
ATOM      8  C   UNL     1     -32.090 -13.211  13.877  0.00  0.00    +0.031 A 
ATOM      9  C   UNL     1     -30.908 -13.864  14.156  0.00  0.00    +0.051 A 
ATOM     10  H   UNL     1     -30.648 -13.458  10.949  0.00  0.00    +0.167 HD
ENDROOT
BRANCH   1  11
ATOM     11  S   UNL     1     -31.179 -14.194  16.914  0.00  0.00    -0.066 S 
BRANCH  11  18
ATOM     12  F   UNL     1     -30.749  -9.063  16.726  0.00  0.00    -0.205 F 
ATOM     13  C   UNL     1     -30.237 -10.236  17.172  0.00  0.00    +0.125 A 
ATOM     14  C   UNL     1     -29.067 -10.241  17.938  0.00  0.00    +0.041 A 
ATOM     15  C   UNL     1     -28.540 -11.451  18.400  0.00  0.00    +0.042 A 
ATOM     16  C   UNL     1     -29.179 -12.658  18.096  0.00  0.00    +0.137 A 
ATOM     17  F   UNL     1     -28.664 -13.822  18.562  0.00  0.00    -0.204 F 
ATOM     18  C   UNL     1     -30.348 -12.655  17.320  0.00  0.00    +0.052 A 
ATOM     19  C   UNL     1     -30.879 -11.440  16.867  0.00  0.00    +0.056 A 
ENDBRANCH  11  18
ENDBRANCH   1  11
TORSDOF 2
ENDMDL
MODEL 8
REMARK VINA RESULT:    -3.762      2.884      5.189
REMARK INTER + INTRA:          -4.854
REMARK INTER:                  -4.312
REMARK INTRA:                  -0.542
REMARK UNBOUND:                -0.652
REMARK  Name = 
REMARK  2 active torsions:
REMARK  status: ('A' for Active; 'I' for Inactive)
REMARK    1  A    between atoms: C_7  and  S_9
REMARK    2  A    between atoms: S_9  and  C_10
REMARK                            x       y       z     vdW  Elec       q    Type
REMARK                         _______ _______ _______ _____ _____    ______ ____
ROOT
ATOM      1  C   UNL     1     -31.183 -13.883  15.378  0.00  0.00    +0.114 A 
ATOM      2  N   UNL     1     -32.202 -13.172  14.814  0.00  0.00    -0.228 NA
ATOM      3  C   UNL     1     -32.196 -12.844  13.483  0.00  0.00    +0.224 A 
ATOM      4  N   UNL     1     -31.160 -13.229  12.680  0.00  0.00    -0.218 NA
ATOM      5  C   UNL     1     -30.147 -13.939  13.234  0.00  0.00    +0.142 A 
ATOM      6  N   UNL     1     -29.065 -14.407  12.596  0.00  0.00    -0.346 N 
ATOM      7  C   UNL     1     -28.348 -15.062  13.539  0.00  0.00    +0.085 A 
ATOM      8  C   UNL     1     -28.985 -15.005  14.777  0.00  0.00    +0.031 A 
ATOM      9  C   UNL     1     -30.134 -14.277  14.553  0.00  0.00    +0.051 A 
ATOM     10  H   UNL     1     -28.826 -14.297  11.585  0.00  0.00    +0.167 HD
ENDROOT
BRANCH   1  11
ATOM     11  S   UNL     1     -31.218 -14.283  17.124  0.00  0.00    -0.066 S 
BRANCH  11  18
ATOM     12  F   UNL     1     -26.883 -11.951  18.646  0.00  0.00    -0.205 F 
ATOM     13  C   UNL     1     -28.186 -11.822  18.293  0.00  0.00    +0.125 A 
ATOM     14  C   UNL     1     -28.787 -10.559  18.287  0.00  0.00    +0.041 A 
ATOM     15  C   UNL     1     -30.129 -10.425  17.920  0.00  0.00    +0.042 A 
ATOM     16  C   UNL     1     -30.875 -11.553  17.562  0.00  0.00    +0.137 A 
ATOM     17  F   UNL     1     -32.172 -11.407  17.195  0.00  0.00    -0.204 F 
ATOM     18  C   UNL     1     -30.277 -12.823  17.575  0.00  0.00    +0.052 A 
ATOM     19  C   UNL     1     -28.928 -12.951  17.934  0.00  0.00    +0.056 A 
ENDBRANCH  11  18
ENDBRANCH   1  11
TORSDOF 2
ENDMDL
