MODEL 1
REMARK VINA RESULT:    -2.205      0.000      0.000
REMARK INTER + INTRA:          -3.425
REMARK INTER:                  -2.849
REMARK INTRA:                  -0.576
REMARK UNBOUND:                -0.576
REMARK  Name = 
REMARK  7 active torsions:
REMARK  status: ('A' for Active; 'I' for Inactive)
REMARK    1  A    between atoms: C_1  and  C_2
REMARK    2  A    between atoms: C_4  and  C_5
REMARK    3  A    between atoms: C_7  and  N_9
REMARK    4  A    between atoms: C_10  and  C_12
REMARK    5  A    between atoms: C_15  and  N_18
REMARK    6  A    between atoms: N_18  and  S_19
REMARK    7  A    between atoms: S_19  and  C_22
REMARK                            x       y       z     vdW  Elec       q    Type
REMARK                         _______ _______ _______ _____ _____    ______ ____
ROOT
ATOM      1  C   UNL     1     -33.039  -9.525  16.677  0.00  0.00    +0.037 A 
ATOM      2  C   UNL     1     -33.905  -8.491  16.280  0.00  0.00    +0.015 A 
ATOM      3  C   UNL     1     -34.456  -7.625  17.229  0.00  0.00    +0.025 A 
ATOM      4  C   UNL     1     -34.154  -7.769  18.591  0.00  0.00    +0.048 A 
ATOM      5  C   UNL     1     -33.271  -8.789  18.986  0.00  0.00    +0.025 A 
ATOM      6  C   UNL     1     -32.719  -9.654  18.039  0.00  0.00    +0.015 A 
ENDROOT
BRANCH   1   8
ATOM      7  N   UNL     1     -32.142 -11.822  16.035  0.00  0.00    -0.266 N 
ATOM      8  C   UNL     1     -32.438 -10.455  15.690  0.00  0.00    +0.249 C 
ATOM      9  O   UNL     1     -32.191 -10.032  14.528  0.00  0.00    -0.270 OA
ATOM     10  H   UNL     1     -32.497 -12.212  16.934  0.00  0.00    +0.157 HD
BRANCH   7  17
ATOM     11  C   UNL     1     -28.227 -14.755  15.014  0.00  0.00    +0.044 C 
ATOM     12  C   UNL     1     -29.556 -14.163  14.648  0.00  0.00    -0.046 A 
ATOM     13  C   UNL     1     -30.211 -14.567  13.478  0.00  0.00    +0.026 A 
ATOM     14  C   UNL     1     -31.478 -14.051  13.184  0.00  0.00    +0.041 A 
ATOM     15  C   UNL     1     -32.193 -14.467  11.938  0.00  0.00    +0.065 C 
ATOM     16  N   UNL     1     -32.058 -13.159  14.031  0.00  0.00    -0.237 NA
ATOM     17  C   UNL     1     -31.448 -12.737  15.172  0.00  0.00    +0.126 A 
ATOM     18  C   UNL     1     -30.190 -13.260  15.513  0.00  0.00    +0.047 A 
ENDBRANCH   7  17
ENDBRANCH   1   8
BRANCH   4  19
ATOM     19  N   UNL     1     -34.747  -6.863  19.540  0.00  0.00    -0.216 N 
ATOM     20  H   UNL     1     -35.565  -6.284  19.245  0.00  0.00    +0.174 HD
BRANCH  19  21
ATOM     21  S   UNL     1     -34.264  -6.747  21.203  0.00  0.00    +0.072 S 
ATOM     22  O   UNL     1     -34.545  -8.051  21.894  0.00  0.00    -0.150 OA
ATOM     23  O   UNL     1     -35.060  -5.659  21.870  0.00  0.00    -0.150 OA
BRANCH  21  24
ATOM     24  C   UNL     1     -32.539  -6.410  21.308  0.00  0.00    +0.109 A 
ATOM     25  C   UNL     1     -31.673  -7.363  21.863  0.00  0.00    +0.031 A 
ATOM     26  C   UNL     1     -30.301  -7.105  21.937  0.00  0.00    +0.040 A 
ATOM     27  C   UNL     1     -29.789  -5.894  21.464  0.00  0.00    +0.124 A 
ATOM     28  F   UNL     1     -28.458  -5.645  21.537  0.00  0.00    -0.205 F 
ATOM     29  C   UNL     1     -30.649  -4.938  20.915  0.00  0.00    +0.040 A 
ATOM     30  C   UNL     1     -32.022  -5.193  20.839  0.00  0.00    +0.031 A 
ENDBRANCH  21  24
ENDBRANCH  19  21
ENDBRANCH   4  19
TORSDOF 5
ENDMDL
MODEL 2
REMARK VINA RESULT:    -2.003      3.458      8.861
REMARK INTER + INTRA:          -3.165
REMARK INTER:                  -3.019
REMARK INTRA:                  -0.145
REMARK UNBOUND:                -0.576
REMARK  Name = 
REMARK  7 active torsions:
REMARK  status: ('A' for Active; 'I' for Inactive)
REMARK    1  A    between atoms: C_1  and  C_2
REMARK    2  A    between atoms: C_4  and  C_5
REMARK    3  A    between atoms: C_7  and  N_9
REMARK    4  A    between atoms: C_10  and  C_12
REMARK    5  A    between atoms: C_15  and  N_18
REMARK    6  A    between atoms: N_18  and  S_19
REMARK    7  A    between atoms: S_19  and  C_22
REMARK                            x       y       z     vdW  Elec       q    Type
REMARK                         _______ _______ _______ _____ _____    ______ ____
ROOT
ATOM      1  C   UNL     1     -32.808  -9.437  16.388  0.00  0.00    +0.037 A 
ATOM      2  C   UNL     1     -31.525  -9.929  16.095  0.00  0.00    +0.015 A 
ATOM      3  C   UNL     1     -31.325 -10.787  15.009  0.00  0.00    +0.025 A 
ATOM      4  C   UNL     1     -32.399 -11.170  14.192  0.00  0.00    +0.048 A 
ATOM      5  C   UNL     1     -33.679 -10.661  14.471  0.00  0.00    +0.025 A 
ATOM      6  C   UNL     1     -33.880  -9.803  15.555  0.00  0.00    +0.015 A 
ENDROOT
BRANCH   1   8
ATOM      7  N   UNL     1     -32.018  -8.261  18.505  0.00  0.00    -0.266 N 
ATOM      8  C   UNL     1     -33.046  -8.522  17.531  0.00  0.00    +0.249 C 
ATOM      9  O   UNL     1     -34.172  -7.964  17.639  0.00  0.00    -0.270 OA
ATOM     10  H   UNL     1     -31.045  -8.589  18.325  0.00  0.00    +0.157 HD
BRANCH   7  17
ATOM     11  C   UNL     1     -30.413  -4.969  21.905  0.00  0.00    +0.044 C 
ATOM     12  C   UNL     1     -31.462  -5.898  21.368  0.00  0.00    -0.046 A 
ATOM     13  C   UNL     1     -32.722  -5.966  21.975  0.00  0.00    +0.026 A 
ATOM     14  C   UNL     1     -33.709  -6.792  21.425  0.00  0.00    +0.041 A 
ATOM     15  C   UNL     1     -35.060  -6.882  22.060  0.00  0.00    +0.065 C 
ATOM     16  N   UNL     1     -33.434  -7.523  20.311  0.00  0.00    -0.237 NA
ATOM     17  C   UNL     1     -32.219  -7.488  19.699  0.00  0.00    +0.126 A 
ATOM     18  C   UNL     1     -31.217  -6.645  20.208  0.00  0.00    +0.047 A 
ENDBRANCH   7  17
ENDBRANCH   1   8
BRANCH   4  19
ATOM     19  N   UNL     1     -32.157 -12.062  13.088  0.00  0.00    -0.216 N 
ATOM     20  H   UNL     1     -32.437 -11.765  12.126  0.00  0.00    +0.174 HD
BRANCH  19  21
ATOM     21  S   UNL     1     -31.313 -13.572  13.227  0.00  0.00    +0.072 S 
ATOM     22  O   UNL     1     -30.060 -13.518  12.399  0.00  0.00    -0.150 OA
ATOM     23  O   UNL     1     -32.194 -14.676  12.710  0.00  0.00    -0.150 OA
BRANCH  21  24
ATOM     24  C   UNL     1     -30.870 -13.863  14.906  0.00  0.00    +0.109 A 
ATOM     25  C   UNL     1     -29.524 -13.800  15.296  0.00  0.00    +0.031 A 
ATOM     26  C   UNL     1     -29.169 -14.018  16.630  0.00  0.00    +0.040 A 
ATOM     27  C   UNL     1     -30.154 -14.306  17.579  0.00  0.00    +0.124 A 
ATOM     28  F   UNL     1     -29.808 -14.518  18.873  0.00  0.00    -0.205 F 
ATOM     29  C   UNL     1     -31.496 -14.376  17.195  0.00  0.00    +0.040 A 
ATOM     30  C   UNL     1     -31.855 -14.157  15.861  0.00  0.00    +0.031 A 
ENDBRANCH  21  24
ENDBRANCH  19  21
ENDBRANCH   4  19
TORSDOF 5
ENDMDL
MODEL 3
REMARK VINA RESULT:    -1.555      2.890      3.807
REMARK INTER + INTRA:          -2.586
REMARK INTER:                  -1.982
REMARK INTRA:                  -0.604
REMARK UNBOUND:                -0.576
REMARK  Name = 
REMARK  7 active torsions:
REMARK  status: ('A' for Active; 'I' for Inactive)
REMARK    1  A    between atoms: C_1  and  C_2
REMARK    2  A    between atoms: C_4  and  C_5
REMARK    3  A    between atoms: C_7  and  N_9
REMARK    4  A    between atoms: C_10  and  C_12
REMARK    5  A    between atoms: C_15  and  N_18
REMARK    6  A    between atoms: N_18  and  S_19
REMARK    7  A    between atoms: S_19  and  C_22
REMARK                            x       y       z     vdW  Elec       q    Type
REMARK                         _______ _______ _______ _____ _____    ______ ____
ROOT
ATOM      1  C   UNL     1     -31.120 -11.779  18.149  0.00  0.00    +0.037 A 
ATOM      2  C   UNL     1     -30.456 -10.552  18.324  0.00  0.00    +0.015 A 
ATOM      3  C   UNL     1     -30.822  -9.690  19.362  0.00  0.00    +0.025 A 
ATOM      4  C   UNL     1     -31.854 -10.033  20.248  0.00  0.00    +0.048 A 
ATOM      5  C   UNL     1     -32.503 -11.270  20.087  0.00  0.00    +0.025 A 
ATOM      6  C   UNL     1     -32.138 -12.132  19.051  0.00  0.00    +0.015 A 
ENDROOT
BRANCH   1   8
ATOM      7  N   UNL     1     -30.557 -12.249  15.709  0.00  0.00    -0.266 N 
ATOM      8  C   UNL     1     -30.748 -12.713  17.059  0.00  0.00    +0.249 C 
ATOM      9  O   UNL     1     -30.593 -13.935  17.331  0.00  0.00    -0.270 OA
ATOM     10  H   UNL     1     -30.522 -11.224  15.519  0.00  0.00    +0.157 HD
BRANCH   7  17
ATOM     11  C   UNL     1     -27.508 -15.062  12.924  0.00  0.00    +0.044 C 
ATOM     12  C   UNL     1     -28.859 -14.479  13.212  0.00  0.00    -0.046 A 
ATOM     13  C   UNL     1     -29.966 -14.844  12.435  0.00  0.00    +0.026 A 
ATOM     14  C   UNL     1     -31.231 -14.339  12.757  0.00  0.00    +0.041 A 
ATOM     15  C   UNL     1     -32.425 -14.713  11.938  0.00  0.00    +0.065 C 
ATOM     16  N   UNL     1     -31.373 -13.496  13.814  0.00  0.00    -0.237 NA
ATOM     17  C   UNL     1     -30.320 -13.113  14.587  0.00  0.00    +0.126 A 
ATOM     18  C   UNL     1     -29.042 -13.627  14.310  0.00  0.00    +0.047 A 
ENDBRANCH   7  17
ENDBRANCH   1   8
BRANCH   4  19
ATOM     19  N   UNL     1     -32.209  -9.117  21.299  0.00  0.00    -0.216 N 
ATOM     20  H   UNL     1     -31.544  -8.973  22.092  0.00  0.00    +0.174 HD
BRANCH  19  21
ATOM     21  S   UNL     1     -33.636  -8.129  21.286  0.00  0.00    +0.072 S 
ATOM     22  O   UNL     1     -33.374  -6.868  22.060  0.00  0.00    -0.150 OA
ATOM     23  O   UNL     1     -34.760  -8.881  21.942  0.00  0.00    -0.150 OA
BRANCH  21  24
ATOM     24  C   UNL     1     -34.057  -7.700  19.631  0.00  0.00    +0.109 A 
ATOM     25  C   UNL     1     -34.069  -6.353  19.239  0.00  0.00    +0.031 A 
ATOM     26  C   UNL     1     -34.391  -6.009  17.922  0.00  0.00    +0.040 A 
ATOM     27  C   UNL     1     -34.706  -7.005  16.994  0.00  0.00    +0.124 A 
ATOM     28  F   UNL     1     -35.019  -6.669  15.718  0.00  0.00    -0.205 F 
ATOM     29  C   UNL     1     -34.701  -8.348  17.382  0.00  0.00    +0.040 A 
ATOM     30  C   UNL     1     -34.379  -8.696  18.698  0.00  0.00    +0.031 A 
ENDBRANCH  21  24
ENDBRANCH  19  21
ENDBRANCH   4  19
TORSDOF 5
ENDMDL
MODEL 4
REMARK VINA RESULT:    -1.321      1.834      2.226
REMARK INTER + INTRA:          -2.283
REMARK INTER:                  -2.580
REMARK INTRA:                   0.298
REMARK UNBOUND:                -0.576
REMARK  Name = 
REMARK  7 active torsions:
REMARK  status: ('A' for Active; 'I' for Inactive)
REMARK    1  A    between atoms: C_1  and  C_2
REMARK    2  A    between atoms: C_4  and  C_5
REMARK    3  A    between atoms: C_7  and  N_9
REMARK    4  A    between atoms: C_10  and  C_12
REMARK    5  A    between atoms: C_15  and  N_18
REMARK    6  A    between atoms: N_18  and  S_19
REMARK    7  A    between atoms: S_19  and  C_22
REMARK                            x       y       z     vdW  Elec       q    Type
REMARK                         _______ _______ _______ _____ _____    ______ ____
ROOT
ATOM      1  C   UNL     1     -32.968  -9.558  16.502  0.00  0.00    +0.037 A 
ATOM      2  C   UNL     1     -34.168  -8.828  16.500  0.00  0.00    +0.015 A 
ATOM      3  C   UNL     1     -34.408  -7.855  17.475  0.00  0.00    +0.025 A 
ATOM      4  C   UNL     1     -33.457  -7.589  18.470  0.00  0.00    +0.048 A 
ATOM      5  C   UNL     1     -32.246  -8.304  18.460  0.00  0.00    +0.025 A 
ATOM      6  C   UNL     1     -32.005  -9.275  17.486  0.00  0.00    +0.015 A 
ENDROOT
BRANCH   1   8
ATOM      7  N   UNL     1     -31.758 -11.664  15.730  0.00  0.00    -0.266 N 
ATOM      8  C   UNL     1     -32.686 -10.592  15.476  0.00  0.00    +0.249 C 
ATOM      9  O   UNL     1     -33.281 -10.525  14.366  0.00  0.00    -0.270 OA
ATOM     10  H   UNL     1     -31.397 -11.811  16.698  0.00  0.00    +0.157 HD
BRANCH   7  17
ATOM     11  C   UNL     1     -28.313 -14.690  13.745  0.00  0.00    +0.044 C 
ATOM     12  C   UNL     1     -29.690 -14.094  13.754  0.00  0.00    -0.046 A 
ATOM     13  C   UNL     1     -30.656 -14.535  12.842  0.00  0.00    +0.026 A 
ATOM     14  C   UNL     1     -31.953 -14.013  12.905  0.00  0.00    +0.041 A 
ATOM     15  C   UNL     1     -32.999 -14.468  11.938  0.00  0.00    +0.065 C 
ATOM     16  N   UNL     1     -32.261 -13.080  13.846  0.00  0.00    -0.237 NA
ATOM     17  C   UNL     1     -31.346 -12.622  14.743  0.00  0.00    +0.126 A 
ATOM     18  C   UNL     1     -30.044 -13.149  14.727  0.00  0.00    +0.047 A 
ENDBRANCH   7  17
ENDBRANCH   1   8
BRANCH   4  19
ATOM     19  N   UNL     1     -33.743  -6.587  19.463  0.00  0.00    -0.216 N 
ATOM     20  H   UNL     1     -34.217  -5.703  19.169  0.00  0.00    +0.174 HD
BRANCH  19  21
ATOM     21  S   UNL     1     -33.454  -6.793  21.162  0.00  0.00    +0.072 S 
ATOM     22  O   UNL     1     -34.769  -6.944  21.873  0.00  0.00    -0.150 OA
ATOM     23  O   UNL     1     -32.749  -5.575  21.692  0.00  0.00    -0.150 OA
BRANCH  21  24
ATOM     24  C   UNL     1     -32.491  -8.240  21.439  0.00  0.00    +0.109 A 
ATOM     25  C   UNL     1     -33.109  -9.499  21.460  0.00  0.00    +0.031 A 
ATOM     26  C   UNL     1     -32.346 -10.652  21.668  0.00  0.00    +0.040 A 
ATOM     27  C   UNL     1     -30.965 -10.553  21.860  0.00  0.00    +0.124 A 
ATOM     28  F   UNL     1     -30.226 -11.672  22.062  0.00  0.00    -0.205 F 
ATOM     29  C   UNL     1     -30.345  -9.300  21.847  0.00  0.00    +0.040 A 
ATOM     30  C   UNL     1     -31.105  -8.145  21.638  0.00  0.00    +0.031 A 
ENDBRANCH  21  24
ENDBRANCH  19  21
ENDBRANCH   4  19
TORSDOF 5
ENDMDL
MODEL 5
REMARK VINA RESULT:    -0.082      4.696      6.473
REMARK INTER + INTRA:          -0.682
REMARK INTER:                   0.151
REMARK INTRA:                  -0.832
REMARK UNBOUND:                -0.576
REMARK  Name = 
REMARK  7 active torsions:
REMARK  status: ('A' for Active; 'I' for Inactive)
REMARK    1  A    between atoms: C_1  and  C_2
REMARK    2  A    between atoms: C_4  and  C_5
REMARK    3  A    between atoms: C_7  and  N_9
REMARK    4  A    between atoms: C_10  and  C_12
REMARK    5  A    between atoms: C_15  and  N_18
REMARK    6  A    between atoms: N_18  and  S_19
REMARK    7  A    between atoms: S_19  and  C_22
REMARK                            x       y       z     vdW  Elec       q    Type
REMARK                         _______ _______ _______ _____ _____    ______ ____
ROOT
ATOM      1  C   UNL     1     -30.044 -12.698  16.597  0.00  0.00    +0.037 A 
ATOM      2  C   UNL     1     -29.149 -11.814  17.223  0.00  0.00    +0.015 A 
ATOM      3  C   UNL     1     -28.308 -12.263  18.245  0.00  0.00    +0.025 A 
ATOM      4  C   UNL     1     -28.339 -13.601  18.663  0.00  0.00    +0.048 A 
ATOM      5  C   UNL     1     -29.218 -14.492  18.022  0.00  0.00    +0.025 A 
ATOM      6  C   UNL     1     -30.059 -14.044  17.000  0.00  0.00    +0.015 A 
ENDROOT
BRANCH   1   8
ATOM      7  N   UNL     1     -32.116 -11.458  15.783  0.00  0.00    -0.266 N 
ATOM      8  C   UNL     1     -30.944 -12.248  15.507  0.00  0.00    +0.249 C 
ATOM      9  O   UNL     1     -30.666 -12.565  14.319  0.00  0.00    -0.270 OA
ATOM     10  H   UNL     1     -32.253 -11.059  16.738  0.00  0.00    +0.157 HD
BRANCH   7  17
ATOM     11  C   UNL     1     -35.062  -8.074  13.583  0.00  0.00    +0.044 C 
ATOM     12  C   UNL     1     -34.540  -9.474  13.715  0.00  0.00    -0.046 A 
ATOM     13  C   UNL     1     -34.929 -10.462  12.801  0.00  0.00    +0.026 A 
ATOM     14  C   UNL     1     -34.385 -11.747  12.901  0.00  0.00    +0.041 A 
ATOM     15  C   UNL     1     -34.790 -12.817  11.938  0.00  0.00    +0.065 C 
ATOM     16  N   UNL     1     -33.489 -12.027  13.886  0.00  0.00    -0.237 NA
ATOM     17  C   UNL     1     -33.094 -11.095  14.796  0.00  0.00    +0.126 A 
ATOM     18  C   UNL     1     -33.598  -9.787  14.704  0.00  0.00    +0.047 A 
ENDBRANCH   7  17
ENDBRANCH   1   8
BRANCH   4  19
ATOM     19  N   UNL     1     -27.464 -14.025  19.724  0.00  0.00    -0.216 N 
ATOM     20  H   UNL     1     -26.555 -14.479  19.480  0.00  0.00    +0.174 HD
BRANCH  19  21
ATOM     21  S   UNL     1     -27.764 -13.727  21.407  0.00  0.00    +0.072 S 
ATOM     22  O   UNL     1     -26.496 -13.256  22.061  0.00  0.00    -0.150 OA
ATOM     23  O   UNL     1     -28.206 -15.007  22.062  0.00  0.00    -0.150 OA
BRANCH  21  24
ATOM     24  C   UNL     1     -28.992 -12.479  21.589  0.00  0.00    +0.109 A 
ATOM     25  C   UNL     1     -28.616 -11.171  21.928  0.00  0.00    +0.031 A 
ATOM     26  C   UNL     1     -29.588 -10.174  22.062  0.00  0.00    +0.040 A 
ATOM     27  C   UNL     1     -30.937 -10.478  21.862  0.00  0.00    +0.124 A 
ATOM     28  F   UNL     1     -31.877  -9.511  21.993  0.00  0.00    -0.205 F 
ATOM     29  C   UNL     1     -31.317 -11.782  21.530  0.00  0.00    +0.040 A 
ATOM     30  C   UNL     1     -30.348 -12.781  21.395  0.00  0.00    +0.031 A 
ENDBRANCH  21  24
ENDBRANCH  19  21
ENDBRANCH   4  19
TORSDOF 5
ENDMDL
