MODEL 1
REMARK VINA RESULT:    -5.163      0.000      0.000
REMARK INTER + INTRA:          -6.653
REMARK INTER:                  -6.370
REMARK INTRA:                  -0.282
REMARK UNBOUND:                -0.282
REMARK  Name = 
REMARK  6 active torsions:
REMARK  status: ('A' for Active; 'I' for Inactive)
REMARK    1  A    between atoms: C_1  and  N_2
REMARK    2  A    between atoms: N_2  and  S_3
REMARK    3  A    between atoms: S_3  and  C_6
REMARK    4  A    between atoms: C_8  and  N_13
REMARK    5  A    between atoms: C_11  and  C_12
REMARK    6  A    between atoms: C_14  and  C_16
REMARK                            x       y       z     vdW  Elec       q    Type
REMARK                         _______ _______ _______ _____ _____    ______ ____
ROOT
ATOM      1  C   UNL     1     -32.064 -12.467  15.883  0.00  0.00    +0.110 A 
ATOM      2  C   UNL     1     -31.168 -12.845  16.896  0.00  0.00    +0.052 A 
ATOM      3  C   UNL     1     -30.051 -13.642  16.619  0.00  0.00    +0.036 A 
ATOM      4  C   UNL     1     -29.806 -14.038  15.297  0.00  0.00    +0.024 A 
ATOM      5  C   UNL     1     -30.689 -13.679  14.279  0.00  0.00    +0.007 A 
ATOM      6  C   UNL     1     -31.833 -12.910  14.554  0.00  0.00    -0.024 A 
ATOM      7  C   UNL     1     -32.747 -12.555  13.412  0.00  0.00    +0.046 C 
ENDROOT
BRANCH   3   8
ATOM      8  N   UNL     1     -29.147 -13.986  17.683  0.00  0.00    -0.280 N 
ATOM      9  C   UNL     1     -28.396 -13.021  18.441  0.00  0.00    +0.267 C 
ATOM     10  O   UNL     1     -28.285 -11.837  18.018  0.00  0.00    -0.268 OA
ATOM     11  H   UNL     1     -28.958 -15.000  17.851  0.00  0.00    +0.155 HD
BRANCH   9  12
ATOM     12  C   UNL     1     -27.720 -13.418  19.694  0.00  0.00    +0.126 A 
ATOM     13  C   UNL     1     -28.435 -13.536  20.899  0.00  0.00    +0.033 A 
ATOM     14  C   UNL     1     -27.763 -13.917  22.062  0.00  0.00    +0.004 A 
ATOM     15  C   UNL     1     -26.393 -14.180  22.020  0.00  0.00    +0.020 A 
ATOM     16  C   UNL     1     -25.712 -14.056  20.808  0.00  0.00    +0.111 A 
ATOM     17  N   UNL     1     -26.383 -13.682  19.686  0.00  0.00    -0.250 NA
ENDBRANCH   9  12
ENDBRANCH   3   8
BRANCH   1  18
ATOM     18  S   UNL     1     -33.457 -11.474  16.365  0.00  0.00    +0.058 S 
ATOM     19  O   UNL     1     -33.470 -11.190  17.840  0.00  0.00    -0.153 OA
ATOM     20  O   UNL     1     -34.713 -12.232  16.035  0.00  0.00    -0.153 OA
BRANCH  18  22
ATOM     21  C   UNL     1     -34.835  -9.495  15.331  0.00  0.00    +0.127 C 
ATOM     22  N   UNL     1     -33.465  -9.979  15.480  0.00  0.00    -0.193 NA
ATOM     23  H   UNL     1     -32.940  -9.279  16.054  0.00  0.00    +0.148 HD
ENDBRANCH  18  22
ENDBRANCH   1  18
TORSDOF 4
ENDMDL
MODEL 2
REMARK VINA RESULT:    -4.598      2.463      7.829
REMARK INTER + INTRA:          -5.956
REMARK INTER:                  -5.534
REMARK INTRA:                  -0.421
REMARK UNBOUND:                -0.282
REMARK  Name = 
REMARK  6 active torsions:
REMARK  status: ('A' for Active; 'I' for Inactive)
REMARK    1  A    between atoms: C_1  and  N_2
REMARK    2  A    between atoms: N_2  and  S_3
REMARK    3  A    between atoms: S_3  and  C_6
REMARK    4  A    between atoms: C_8  and  N_13
REMARK    5  A    between atoms: C_11  and  C_12
REMARK    6  A    between atoms: C_14  and  C_16
REMARK                            x       y       z     vdW  Elec       q    Type
REMARK                         _______ _______ _______ _____ _____    ______ ____
ROOT
ATOM      1  C   UNL     1     -29.864 -12.353  19.251  0.00  0.00    +0.110 A 
ATOM      2  C   UNL     1     -30.638 -12.409  18.081  0.00  0.00    +0.052 A 
ATOM      3  C   UNL     1     -31.971 -11.983  18.069  0.00  0.00    +0.036 A 
ATOM      4  C   UNL     1     -32.530 -11.458  19.241  0.00  0.00    +0.024 A 
ATOM      5  C   UNL     1     -31.780 -11.402  20.416  0.00  0.00    +0.007 A 
ATOM      6  C   UNL     1     -30.452 -11.861  20.447  0.00  0.00    -0.024 A 
ATOM      7  C   UNL     1     -29.696 -11.774  21.745  0.00  0.00    +0.046 C 
ENDROOT
BRANCH   3   8
ATOM      8  N   UNL     1     -32.718 -12.036  16.841  0.00  0.00    -0.280 N 
ATOM      9  C   UNL     1     -32.485 -11.164  15.722  0.00  0.00    +0.267 C 
ATOM     10  O   UNL     1     -31.792 -10.120  15.871  0.00  0.00    -0.268 OA
ATOM     11  H   UNL     1     -33.537 -12.685  16.799  0.00  0.00    +0.155 HD
BRANCH   9  12
ATOM     12  C   UNL     1     -33.084 -11.464  14.404  0.00  0.00    +0.126 A 
ATOM     13  C   UNL     1     -32.527 -12.436  13.556  0.00  0.00    +0.033 A 
ATOM     14  C   UNL     1     -33.123 -12.695  12.320  0.00  0.00    +0.004 A 
ATOM     15  C   UNL     1     -34.265 -11.991  11.938  0.00  0.00    +0.020 A 
ATOM     16  C   UNL     1     -34.796 -11.033  12.803  0.00  0.00    +0.111 A 
ATOM     17  N   UNL     1     -34.201 -10.793  14.002  0.00  0.00    -0.250 NA
ENDBRANCH   9  12
ENDBRANCH   3   8
BRANCH   1  18
ATOM     18  S   UNL     1     -28.192 -12.945  19.146  0.00  0.00    +0.058 S 
ATOM     19  O   UNL     1     -27.190 -11.885  19.505  0.00  0.00    -0.153 OA
ATOM     20  O   UNL     1     -27.927 -13.361  17.725  0.00  0.00    -0.153 OA
BRANCH  18  22
ATOM     21  C   UNL     1     -26.623 -14.336  20.724  0.00  0.00    +0.127 C 
ATOM     22  N   UNL     1     -27.976 -14.328  20.175  0.00  0.00    -0.193 NA
ATOM     23  H   UNL     1     -28.644 -14.224  20.974  0.00  0.00    +0.148 HD
ENDBRANCH  18  22
ENDBRANCH   1  18
TORSDOF 4
ENDMDL
MODEL 3
REMARK VINA RESULT:    -4.499      2.255      2.636
REMARK INTER + INTRA:          -5.833
REMARK INTER:                  -5.474
REMARK INTRA:                  -0.360
REMARK UNBOUND:                -0.282
REMARK  Name = 
REMARK  6 active torsions:
REMARK  status: ('A' for Active; 'I' for Inactive)
REMARK    1  A    between atoms: C_1  and  N_2
REMARK    2  A    between atoms: N_2  and  S_3
REMARK    3  A    between atoms: S_3  and  C_6
REMARK    4  A    between atoms: C_8  and  N_13
REMARK    5  A    between atoms: C_11  and  C_12
REMARK    6  A    between atoms: C_14  and  C_16
REMARK                            x       y       z     vdW  Elec       q    Type
REMARK                         _______ _______ _______ _____ _____    ______ ____
ROOT
ATOM      1  C   UNL     1     -32.115 -10.241  17.777  0.00  0.00    +0.110 A 
ATOM      2  C   UNL     1     -31.174 -11.061  18.421  0.00  0.00    +0.052 A 
ATOM      3  C   UNL     1     -30.367 -11.948  17.699  0.00  0.00    +0.036 A 
ATOM      4  C   UNL     1     -30.477 -11.990  16.303  0.00  0.00    +0.024 A 
ATOM      5  C   UNL     1     -31.412 -11.189  15.647  0.00  0.00    +0.007 A 
ATOM      6  C   UNL     1     -32.252 -10.322  16.366  0.00  0.00    -0.024 A 
ATOM      7  C   UNL     1     -33.240  -9.485  15.600  0.00  0.00    +0.046 C 
ENDROOT
BRANCH   3   8
ATOM      8  N   UNL     1     -29.399 -12.751  18.398  0.00  0.00    -0.280 N 
ATOM      9  C   UNL     1     -28.136 -12.254  18.872  0.00  0.00    +0.267 C 
ATOM     10  O   UNL     1     -27.695 -11.150  18.449  0.00  0.00    -0.268 OA
ATOM     11  H   UNL     1     -29.590 -13.775  18.483  0.00  0.00    +0.155 HD
BRANCH   9  12
ATOM     12  C   UNL     1     -27.331 -13.047  19.824  0.00  0.00    +0.126 A 
ATOM     13  C   UNL     1     -27.931 -13.705  20.912  0.00  0.00    +0.033 A 
ATOM     14  C   UNL     1     -27.139 -14.450  21.788  0.00  0.00    +0.004 A 
ATOM     15  C   UNL     1     -25.762 -14.536  21.579  0.00  0.00    +0.020 A 
ATOM     16  C   UNL     1     -25.196 -13.874  20.489  0.00  0.00    +0.111 A 
ATOM     17  N   UNL     1     -25.984 -13.152  19.646  0.00  0.00    -0.250 NA
ENDBRANCH   9  12
ENDBRANCH   3   8
BRANCH   1  18
ATOM     18  S   UNL     1     -33.097  -9.175  18.805  0.00  0.00    +0.058 S 
ATOM     19  O   UNL     1     -32.870  -9.429  20.269  0.00  0.00    -0.153 OA
ATOM     20  O   UNL     1     -34.547  -9.443  18.514  0.00  0.00    -0.153 OA
BRANCH  18  22
ATOM     21  C   UNL     1     -32.374  -6.801  19.657  0.00  0.00    +0.127 C 
ATOM     22  N   UNL     1     -32.759  -7.510  18.440  0.00  0.00    -0.193 NA
ATOM     23  H   UNL     1     -31.939  -7.497  17.791  0.00  0.00    +0.148 HD
ENDBRANCH  18  22
ENDBRANCH   1  18
TORSDOF 4
ENDMDL
MODEL 4
REMARK VINA RESULT:    -4.301      2.032      2.666
REMARK INTER + INTRA:          -5.589
REMARK INTER:                  -5.361
REMARK INTRA:                  -0.229
REMARK UNBOUND:                -0.282
REMARK  Name = 
REMARK  6 active torsions:
REMARK  status: ('A' for Active; 'I' for Inactive)
REMARK    1  A    between atoms: C_1  and  N_2
REMARK    2  A    between atoms: N_2  and  S_3
REMARK    3  A    between atoms: S_3  and  C_6
REMARK    4  A    between atoms: C_8  and  N_13
REMARK    5  A    between atoms: C_11  and  C_12
REMARK    6  A    between atoms: C_14  and  C_16
REMARK                            x       y       z     vdW  Elec       q    Type
REMARK                         _______ _______ _______ _____ _____    ______ ____
ROOT
ATOM      1  C   UNL     1     -31.563 -11.690  15.716  0.00  0.00    +0.110 A 
ATOM      2  C   UNL     1     -30.671 -12.445  16.495  0.00  0.00    +0.052 A 
ATOM      3  C   UNL     1     -30.102 -11.921  17.662  0.00  0.00    +0.036 A 
ATOM      4  C   UNL     1     -30.461 -10.632  18.077  0.00  0.00    +0.024 A 
ATOM      5  C   UNL     1     -31.339  -9.864  17.312  0.00  0.00    +0.007 A 
ATOM      6  C   UNL     1     -31.887 -10.368  16.120  0.00  0.00    -0.024 A 
ATOM      7  C   UNL     1     -32.828  -9.490  15.339  0.00  0.00    +0.046 C 
ENDROOT
BRANCH   3   8
ATOM      8  N   UNL     1     -29.212 -12.739  18.442  0.00  0.00    -0.280 N 
ATOM      9  C   UNL     1     -27.902 -12.322  18.862  0.00  0.00    +0.267 C 
ATOM     10  O   UNL     1     -27.358 -11.317  18.326  0.00  0.00    -0.268 OA
ATOM     11  H   UNL     1     -29.502 -13.724  18.633  0.00  0.00    +0.155 HD
BRANCH   9  12
ATOM     12  C   UNL     1     -27.169 -13.088  19.893  0.00  0.00    +0.126 A 
ATOM     13  C   UNL     1     -27.822 -13.568  21.042  0.00  0.00    +0.033 A 
ATOM     14  C   UNL     1     -27.098 -14.291  21.992  0.00  0.00    +0.004 A 
ATOM     15  C   UNL     1     -25.738 -14.534  21.794  0.00  0.00    +0.020 A 
ATOM     16  C   UNL     1     -25.120 -14.047  20.642  0.00  0.00    +0.111 A 
ATOM     17  N   UNL     1     -25.840 -13.343  19.728  0.00  0.00    -0.250 NA
ENDBRANCH   9  12
ENDBRANCH   3   8
BRANCH   1  18
ATOM     18  S   UNL     1     -32.200 -12.456  14.244  0.00  0.00    +0.058 S 
ATOM     19  O   UNL     1     -31.774 -13.892  14.121  0.00  0.00    -0.153 OA
ATOM     20  O   UNL     1     -31.657 -11.715  13.054  0.00  0.00    -0.153 OA
BRANCH  18  22
ATOM     21  C   UNL     1     -34.401 -12.197  12.840  0.00  0.00    +0.127 C 
ATOM     22  N   UNL     1     -33.934 -12.355  14.214  0.00  0.00    -0.193 NA
ATOM     23  H   UNL     1     -34.301 -13.266  14.573  0.00  0.00    +0.148 HD
ENDBRANCH  18  22
ENDBRANCH   1  18
TORSDOF 4
ENDMDL
MODEL 5
REMARK VINA RESULT:    -4.017      3.495      7.187
REMARK INTER + INTRA:          -5.239
REMARK INTER:                  -4.818
REMARK INTRA:                  -0.420
REMARK UNBOUND:                -0.282
REMARK  Name = 
REMARK  6 active torsions:
REMARK  status: ('A' for Active; 'I' for Inactive)
REMARK    1  A    between atoms: C_1  and  N_2
REMARK    2  A    between atoms: N_2  and  S_3
REMARK    3  A    between atoms: S_3  and  C_6
REMARK    4  A    between atoms: C_8  and  N_13
REMARK    5  A    between atoms: C_11  and  C_12
REMARK    6  A    between atoms: C_14  and  C_16
REMARK                            x       y       z     vdW  Elec       q    Type
REMARK                         _______ _______ _______ _____ _____    ______ ____
ROOT
ATOM      1  C   UNL     1     -30.747  -9.938  19.665  0.00  0.00    +0.110 A 
ATOM      2  C   UNL     1     -31.028 -10.278  18.332  0.00  0.00    +0.052 A 
ATOM      3  C   UNL     1     -30.648 -11.516  17.802  0.00  0.00    +0.036 A 
ATOM      4  C   UNL     1     -30.008 -12.447  18.631  0.00  0.00    +0.024 A 
ATOM      5  C   UNL     1     -29.713 -12.124  19.955  0.00  0.00    +0.007 A 
ATOM      6  C   UNL     1     -30.057 -10.869  20.486  0.00  0.00    -0.024 A 
ATOM      7  C   UNL     1     -29.711 -10.581  21.922  0.00  0.00    +0.046 C 
ENDROOT
BRANCH   3   8
ATOM      8  N   UNL     1     -30.979 -11.832  16.438  0.00  0.00    -0.280 N 
ATOM      9  C   UNL     1     -32.215 -12.444  16.033  0.00  0.00    +0.267 C 
ATOM     10  O   UNL     1     -32.958 -12.992  16.893  0.00  0.00    -0.268 OA
ATOM     11  H   UNL     1     -30.238 -11.690  15.715  0.00  0.00    +0.155 HD
BRANCH   9  12
ATOM     12  C   UNL     1     -32.603 -12.471  14.606  0.00  0.00    +0.126 A 
ATOM     13  C   UNL     1     -31.699 -12.890  13.615  0.00  0.00    +0.033 A 
ATOM     14  C   UNL     1     -32.103 -12.906  12.278  0.00  0.00    +0.004 A 
ATOM     15  C   UNL     1     -33.396 -12.508  11.938  0.00  0.00    +0.020 A 
ATOM     16  C   UNL     1     -34.271 -12.100  12.945  0.00  0.00    +0.111 A 
ATOM     17  N   UNL     1     -33.860 -12.090  14.242  0.00  0.00    -0.250 NA
ENDBRANCH   9  12
ENDBRANCH   3   8
BRANCH   1  18
ATOM     18  S   UNL     1     -31.258  -8.327  20.215  0.00  0.00    +0.058 S 
ATOM     19  O   UNL     1     -32.188  -8.397  21.393  0.00  0.00    -0.153 OA
ATOM     20  O   UNL     1     -31.997  -7.656  19.090  0.00  0.00    -0.153 OA
BRANCH  18  22
ATOM     21  C   UNL     1     -30.274  -6.242  21.468  0.00  0.00    +0.127 C 
ATOM     22  N   UNL     1     -29.872  -7.360  20.619  0.00  0.00    -0.193 NA
ATOM     23  H   UNL     1     -29.226  -7.967  21.175  0.00  0.00    +0.148 HD
ENDBRANCH  18  22
ENDBRANCH   1  18
TORSDOF 4
ENDMDL
MODEL 6
REMARK VINA RESULT:    -3.961      2.237      3.262
REMARK INTER + INTRA:          -5.170
REMARK INTER:                  -4.851
REMARK INTRA:                  -0.319
REMARK UNBOUND:                -0.282
REMARK  Name = 
REMARK  6 active torsions:
REMARK  status: ('A' for Active; 'I' for Inactive)
REMARK    1  A    between atoms: C_1  and  N_2
REMARK    2  A    between atoms: N_2  and  S_3
REMARK    3  A    between atoms: S_3  and  C_6
REMARK    4  A    between atoms: C_8  and  N_13
REMARK    5  A    between atoms: C_11  and  C_12
REMARK    6  A    between atoms: C_14  and  C_16
REMARK                            x       y       z     vdW  Elec       q    Type
REMARK                         _______ _______ _______ _____ _____    ______ ____
ROOT
ATOM      1  C   UNL     1     -31.632 -11.019  16.767  0.00  0.00    +0.110 A 
ATOM      2  C   UNL     1     -30.535 -11.540  17.473  0.00  0.00    +0.052 A 
ATOM      3  C   UNL     1     -29.892 -10.798  18.470  0.00  0.00    +0.036 A 
ATOM      4  C   UNL     1     -30.377  -9.523  18.792  0.00  0.00    +0.024 A 
ATOM      5  C   UNL     1     -31.459  -8.985  18.097  0.00  0.00    +0.007 A 
ATOM      6  C   UNL     1     -32.089  -9.709  17.069  0.00  0.00    -0.024 A 
ATOM      7  C   UNL     1     -33.252  -9.073  16.356  0.00  0.00    +0.046 C 
ENDROOT
BRANCH   3   8
ATOM      8  N   UNL     1     -28.788 -11.381  19.183  0.00  0.00    -0.280 N 
ATOM      9  C   UNL     1     -28.909 -12.510  20.065  0.00  0.00    +0.267 C 
ATOM     10  O   UNL     1     -30.048 -12.872  20.472  0.00  0.00    -0.268 OA
ATOM     11  H   UNL     1     -27.863 -10.897  19.126  0.00  0.00    +0.155 HD
BRANCH   9  12
ATOM     12  C   UNL     1     -27.703 -13.229  20.529  0.00  0.00    +0.126 A 
ATOM     13  C   UNL     1     -27.748 -14.075  21.651  0.00  0.00    +0.033 A 
ATOM     14  C   UNL     1     -26.590 -14.740  22.058  0.00  0.00    +0.004 A 
ATOM     15  C   UNL     1     -25.401 -14.563  21.349  0.00  0.00    +0.020 A 
ATOM     16  C   UNL     1     -25.389 -13.719  20.238  0.00  0.00    +0.111 A 
ATOM     17  N   UNL     1     -26.527 -13.078  19.858  0.00  0.00    -0.250 NA
ENDBRANCH   9  12
ENDBRANCH   3   8
BRANCH   1  18
ATOM     18  S   UNL     1     -32.348 -12.049  15.509  0.00  0.00    +0.058 S 
ATOM     19  O   UNL     1     -32.397 -11.363  14.173  0.00  0.00    -0.153 OA
ATOM     20  O   UNL     1     -33.762 -12.369  15.909  0.00  0.00    -0.153 OA
BRANCH  18  22
ATOM     21  C   UNL     1     -30.759 -13.584  14.093  0.00  0.00    +0.127 C 
ATOM     22  N   UNL     1     -31.462 -13.537  15.372  0.00  0.00    -0.193 NA
ATOM     23  H   UNL     1     -30.743 -13.538  16.132  0.00  0.00    +0.148 HD
ENDBRANCH  18  22
ENDBRANCH   1  18
TORSDOF 4
ENDMDL
MODEL 7
REMARK VINA RESULT:    -3.829      4.178      6.432
REMARK INTER + INTRA:          -5.006
REMARK INTER:                  -5.018
REMARK INTRA:                   0.012
REMARK UNBOUND:                -0.282
REMARK  Name = 
REMARK  6 active torsions:
REMARK  status: ('A' for Active; 'I' for Inactive)
REMARK    1  A    between atoms: C_1  and  N_2
REMARK    2  A    between atoms: N_2  and  S_3
REMARK    3  A    between atoms: S_3  and  C_6
REMARK    4  A    between atoms: C_8  and  N_13
REMARK    5  A    between atoms: C_11  and  C_12
REMARK    6  A    between atoms: C_14  and  C_16
REMARK                            x       y       z     vdW  Elec       q    Type
REMARK                         _______ _______ _______ _____ _____    ______ ____
ROOT
ATOM      1  C   UNL     1     -30.170 -12.114  16.764  0.00  0.00    +0.110 A 
ATOM      2  C   UNL     1     -30.381 -10.870  17.380  0.00  0.00    +0.052 A 
ATOM      3  C   UNL     1     -31.295  -9.946  16.859  0.00  0.00    +0.036 A 
ATOM      4  C   UNL     1     -32.039 -10.289  15.722  0.00  0.00    +0.024 A 
ATOM      5  C   UNL     1     -31.837 -11.517  15.092  0.00  0.00    +0.007 A 
ATOM      6  C   UNL     1     -30.895 -12.436  15.586  0.00  0.00    -0.024 A 
ATOM      7  C   UNL     1     -30.724 -13.744  14.862  0.00  0.00    +0.046 C 
ENDROOT
BRANCH   3   8
ATOM      8  N   UNL     1     -31.496  -8.693  17.536  0.00  0.00    -0.280 N 
ATOM      9  C   UNL     1     -32.124  -8.569  18.823  0.00  0.00    +0.267 C 
ATOM     10  O   UNL     1     -32.783  -9.535  19.298  0.00  0.00    -0.268 OA
ATOM     11  H   UNL     1     -31.254  -7.818  17.018  0.00  0.00    +0.155 HD
BRANCH   9  12
ATOM     12  C   UNL     1     -32.035  -7.301  19.579  0.00  0.00    +0.126 A 
ATOM     13  C   UNL     1     -33.032  -6.317  19.465  0.00  0.00    +0.033 A 
ATOM     14  C   UNL     1     -32.916  -5.133  20.198  0.00  0.00    +0.004 A 
ATOM     15  C   UNL     1     -31.817  -4.938  21.034  0.00  0.00    +0.020 A 
ATOM     16  C   UNL     1     -30.845  -5.935  21.127  0.00  0.00    +0.111 A 
ATOM     17  N   UNL     1     -30.974  -7.081  20.405  0.00  0.00    -0.250 NA
ENDBRANCH   9  12
ENDBRANCH   3   8
BRANCH   1  18
ATOM     18  S   UNL     1     -28.966 -13.190  17.507  0.00  0.00    +0.058 S 
ATOM     19  O   UNL     1     -27.898 -12.428  18.240  0.00  0.00    -0.153 OA
ATOM     20  O   UNL     1     -28.296 -13.976  16.413  0.00  0.00    -0.153 OA
BRANCH  18  22
ATOM     21  C   UNL     1     -30.196 -13.601  19.788  0.00  0.00    +0.127 C 
ATOM     22  N   UNL     1     -29.741 -14.304  18.591  0.00  0.00    -0.193 NA
ATOM     23  H   UNL     1     -30.587 -14.675  18.099  0.00  0.00    +0.148 HD
ENDBRANCH  18  22
ENDBRANCH   1  18
TORSDOF 4
ENDMDL
MODEL 8
REMARK VINA RESULT:    -3.792      3.130      3.839
REMARK INTER + INTRA:          -4.961
REMARK INTER:                  -4.618
REMARK INTRA:                  -0.342
REMARK UNBOUND:                -0.282
REMARK  Name = 
REMARK  6 active torsions:
REMARK  status: ('A' for Active; 'I' for Inactive)
REMARK    1  A    between atoms: C_1  and  N_2
REMARK    2  A    between atoms: N_2  and  S_3
REMARK    3  A    between atoms: S_3  and  C_6
REMARK    4  A    between atoms: C_8  and  N_13
REMARK    5  A    between atoms: C_11  and  C_12
REMARK    6  A    between atoms: C_14  and  C_16
REMARK                            x       y       z     vdW  Elec       q    Type
REMARK                         _______ _______ _______ _____ _____    ______ ____
ROOT
ATOM      1  C   UNL     1     -31.233 -13.108  14.359  0.00  0.00    +0.110 A 
ATOM      2  C   UNL     1     -31.265 -12.511  15.630  0.00  0.00    +0.052 A 
ATOM      3  C   UNL     1     -30.375 -12.900  16.638  0.00  0.00    +0.036 A 
ATOM      4  C   UNL     1     -29.412 -13.879  16.359  0.00  0.00    +0.024 A 
ATOM      5  C   UNL     1     -29.371 -14.489  15.106  0.00  0.00    +0.007 A 
ATOM      6  C   UNL     1     -30.284 -14.131  14.099  0.00  0.00    -0.024 A 
ATOM      7  C   UNL     1     -30.188 -14.827  12.767  0.00  0.00    +0.046 C 
ENDROOT
BRANCH   3   8
ATOM      8  N   UNL     1     -30.427 -12.244  17.918  0.00  0.00    -0.280 N 
ATOM      9  C   UNL     1     -29.697 -11.047  18.236  0.00  0.00    +0.267 C 
ATOM     10  O   UNL     1     -28.752 -10.670  17.490  0.00  0.00    -0.268 OA
ATOM     11  H   UNL     1     -30.956 -12.719  18.684  0.00  0.00    +0.155 HD
BRANCH   9  12
ATOM     12  C   UNL     1     -30.021 -10.276  19.455  0.00  0.00    +0.126 A 
ATOM     13  C   UNL     1     -30.074 -10.897  20.715  0.00  0.00    +0.033 A 
ATOM     14  C   UNL     1     -30.379 -10.135  21.845  0.00  0.00    +0.004 A 
ATOM     15  C   UNL     1     -30.626  -8.769  21.716  0.00  0.00    +0.020 A 
ATOM     16  C   UNL     1     -30.564  -8.181  20.452  0.00  0.00    +0.111 A 
ATOM     17  N   UNL     1     -30.266  -8.939  19.363  0.00  0.00    -0.250 NA
ENDBRANCH   9  12
ENDBRANCH   3   8
BRANCH   1  18
ATOM     18  S   UNL     1     -32.429 -12.546  13.171  0.00  0.00    +0.058 S 
ATOM     19  O   UNL     1     -33.383 -13.635  12.766  0.00  0.00    -0.153 OA
ATOM     20  O   UNL     1     -31.696 -12.099  11.938  0.00  0.00    -0.153 OA
BRANCH  18  22
ATOM     21  C   UNL     1     -34.658 -11.163  13.226  0.00  0.00    +0.127 C 
ATOM     22  N   UNL     1     -33.319 -11.195  13.805  0.00  0.00    -0.193 NA
ATOM     23  H   UNL     1     -33.420 -11.349  14.835  0.00  0.00    +0.148 HD
ENDBRANCH  18  22
ENDBRANCH   1  18
TORSDOF 4
ENDMDL
MODEL 9
REMARK VINA RESULT:    -3.782      3.986      7.129
REMARK INTER + INTRA:          -4.948
REMARK INTER:                  -4.772
REMARK INTRA:                  -0.177
REMARK UNBOUND:                -0.282
REMARK  Name = 
REMARK  6 active torsions:
REMARK  status: ('A' for Active; 'I' for Inactive)
REMARK    1  A    between atoms: C_1  and  N_2
REMARK    2  A    between atoms: N_2  and  S_3
REMARK    3  A    between atoms: S_3  and  C_6
REMARK    4  A    between atoms: C_8  and  N_13
REMARK    5  A    between atoms: C_11  and  C_12
REMARK    6  A    between atoms: C_14  and  C_16
REMARK                            x       y       z     vdW  Elec       q    Type
REMARK                         _______ _______ _______ _____ _____    ______ ____
ROOT
ATOM      1  C   UNL     1     -32.237  -8.368  18.937  0.00  0.00    +0.110 A 
ATOM      2  C   UNL     1     -32.324  -9.051  17.713  0.00  0.00    +0.052 A 
ATOM      3  C   UNL     1     -31.328  -9.948  17.307  0.00  0.00    +0.036 A 
ATOM      4  C   UNL     1     -30.242 -10.193  18.159  0.00  0.00    +0.024 A 
ATOM      5  C   UNL     1     -30.134  -9.517  19.374  0.00  0.00    +0.007 A 
ATOM      6  C   UNL     1     -31.110  -8.588  19.773  0.00  0.00    -0.024 A 
ATOM      7  C   UNL     1     -30.936  -7.892  21.096  0.00  0.00    +0.046 C 
ENDROOT
BRANCH   3   8
ATOM      8  N   UNL     1     -31.472 -10.644  16.057  0.00  0.00    -0.280 N 
ATOM      9  C   UNL     1     -32.340 -11.773  15.862  0.00  0.00    +0.267 C 
ATOM     10  O   UNL     1     -32.813 -12.383  16.860  0.00  0.00    -0.268 OA
ATOM     11  H   UNL     1     -30.838 -10.367  15.273  0.00  0.00    +0.155 HD
BRANCH   9  12
ATOM     12  C   UNL     1     -32.653 -12.248  14.497  0.00  0.00    +0.126 A 
ATOM     13  C   UNL     1     -31.691 -12.920  13.724  0.00  0.00    +0.033 A 
ATOM     14  C   UNL     1     -32.025 -13.358  12.440  0.00  0.00    +0.004 A 
ATOM     15  C   UNL     1     -33.306 -13.128  11.938  0.00  0.00    +0.020 A 
ATOM     16  C   UNL     1     -34.239 -12.459  12.731  0.00  0.00    +0.111 A 
ATOM     17  N   UNL     1     -33.896 -12.039  13.978  0.00  0.00    -0.250 NA
ENDBRANCH   9  12
ENDBRANCH   3   8
BRANCH   1  18
ATOM     18  S   UNL     1     -33.551  -7.238  19.329  0.00  0.00    +0.058 S 
ATOM     19  O   UNL     1     -33.837  -7.188  20.803  0.00  0.00    -0.153 OA
ATOM     20  O   UNL     1     -34.801  -7.710  18.638  0.00  0.00    -0.153 OA
BRANCH  18  22
ATOM     21  C   UNL     1     -34.376  -4.990  18.258  0.00  0.00    +0.127 C 
ATOM     22  N   UNL     1     -33.169  -5.645  18.751  0.00  0.00    -0.193 NA
ATOM     23  H   UNL     1     -32.820  -5.096  19.571  0.00  0.00    +0.148 HD
ENDBRANCH  18  22
ENDBRANCH   1  18
TORSDOF 4
ENDMDL
