MODEL 1
REMARK VINA RESULT:    -4.448      0.000      0.000
REMARK INTER + INTRA:          -9.304
REMARK INTER:                  -6.268
REMARK INTRA:                  -3.035
REMARK UNBOUND:                -3.035
REMARK  Name = 
REMARK  8 active torsions:
REMARK  status: ('A' for Active; 'I' for Inactive)
REMARK    1  A    between atoms: C_1  and  O_2
REMARK    2  A    between atoms: O_2  and  C_3
REMARK    3  A    between atoms: C_6  and  S_9
REMARK    4  A    between atoms: S_9  and  N_12
REMARK    5  A    between atoms: N_12  and  C_13
REMARK    6  A    between atoms: C_13  and  C_14
REMARK    7  A    between atoms: C_14  and  C_15
REMARK    8  A    between atoms: C_18  and  C_21
REMARK                            x       y       z     vdW  Elec       q    Type
REMARK                         _______ _______ _______ _____ _____    ______ ____
ROOT
ATOM      1  N   UNL     1     -31.698  -8.411  18.149  0.00  0.00    -0.190 NA
ATOM      2  H   UNL     1     -31.567  -7.383  18.010  0.00  0.00    +0.148 HD
ENDROOT
BRANCH   1   3
ATOM      3  S   UNL     1     -31.005  -8.781  19.699  0.00  0.00    +0.058 S 
ATOM      4  O   UNL     1     -32.106  -9.100  20.671  0.00  0.00    -0.153 OA
ATOM      5  O   UNL     1     -30.246  -7.590  20.212  0.00  0.00    -0.153 OA
BRANCH   3   9
ATOM      6  C   UNL     1     -28.180 -12.366  19.365  0.00  0.00    +0.120 A 
ATOM      7  C   UNL     1     -29.042 -12.246  20.462  0.00  0.00    +0.047 A 
ATOM      8  C   UNL     1     -29.915 -11.159  20.565  0.00  0.00    +0.032 A 
ATOM      9  C   UNL     1     -29.936 -10.177  19.566  0.00  0.00    +0.105 A 
ATOM     10  C   UNL     1     -29.074 -10.288  18.469  0.00  0.00    +0.032 A 
ATOM     11  C   UNL     1     -28.201 -11.375  18.364  0.00  0.00    +0.047 A 
BRANCH   6  13
ATOM     12  C   UNL     1     -26.771 -14.122  20.452  0.00  0.00    +0.277 C 
ATOM     13  O   UNL     1     -27.323 -13.475  19.309  0.00  0.00    -0.495 OA
ENDBRANCH   6  13
ENDBRANCH   3   9
ENDBRANCH   1   3
BRANCH   1  14
ATOM     14  C   UNL     1     -33.136  -8.697  18.172  0.00  0.00    +0.110 C 
BRANCH  14  15
ATOM     15  C   UNL     1     -33.541  -9.544  16.959  0.00  0.00    +0.052 C 
BRANCH  15  16
ATOM     16  C   UNL     1     -32.657 -10.754  16.803  0.00  0.00    -0.046 A 
ATOM     17  C   UNL     1     -31.768 -10.852  15.723  0.00  0.00    +0.004 A 
ATOM     18  C   UNL     1     -30.977 -11.993  15.559  0.00  0.00    +0.012 A 
ATOM     19  C   UNL     1     -31.052 -13.051  16.482  0.00  0.00    +0.055 A 
ATOM     20  C   UNL     1     -31.969 -12.964  17.544  0.00  0.00    +0.012 A 
ATOM     21  C   UNL     1     -32.760 -11.823  17.707  0.00  0.00    +0.004 A 
BRANCH  19  22
ATOM     22  C   UNL     1     -30.238 -14.303  16.276  0.00  0.00    +0.417 C 
ATOM     23  F   UNL     1     -28.935 -13.988  15.932  0.00  0.00    -0.166 F 
ATOM     24  F   UNL     1     -30.209 -15.062  17.433  0.00  0.00    -0.166 F 
ATOM     25  F   UNL     1     -30.804 -15.051  15.260  0.00  0.00    -0.166 F 
ENDBRANCH  19  22
ENDBRANCH  15  16
ENDBRANCH  14  15
ENDBRANCH   1  14
TORSDOF 7
ENDMDL
MODEL 2
REMARK VINA RESULT:    -4.441      2.021      4.275
REMARK INTER + INTRA:          -9.294
REMARK INTER:                  -5.932
REMARK INTRA:                  -3.362
REMARK UNBOUND:                -3.035
REMARK  Name = 
REMARK  8 active torsions:
REMARK  status: ('A' for Active; 'I' for Inactive)
REMARK    1  A    between atoms: C_1  and  O_2
REMARK    2  A    between atoms: O_2  and  C_3
REMARK    3  A    between atoms: C_6  and  S_9
REMARK    4  A    between atoms: S_9  and  N_12
REMARK    5  A    between atoms: N_12  and  C_13
REMARK    6  A    between atoms: C_13  and  C_14
REMARK    7  A    between atoms: C_14  and  C_15
REMARK    8  A    between atoms: C_18  and  C_21
REMARK                            x       y       z     vdW  Elec       q    Type
REMARK                         _______ _______ _______ _____ _____    ______ ____
ROOT
ATOM      1  N   UNL     1     -29.450 -10.185  20.841  0.00  0.00    -0.190 NA
ATOM      2  H   UNL     1     -28.888 -10.492  20.013  0.00  0.00    +0.148 HD
ENDROOT
BRANCH   1   3
ATOM      3  S   UNL     1     -30.709  -9.162  20.217  0.00  0.00    +0.058 S 
ATOM      4  O   UNL     1     -30.209  -7.747  20.146  0.00  0.00    -0.153 OA
ATOM      5  O   UNL     1     -31.897  -9.203  21.136  0.00  0.00    -0.153 OA
BRANCH   3   9
ATOM      6  C   UNL     1     -31.940 -10.477  16.010  0.00  0.00    +0.120 A 
ATOM      7  C   UNL     1     -30.641 -10.014  16.253  0.00  0.00    +0.047 A 
ATOM      8  C   UNL     1     -30.256  -9.620  17.538  0.00  0.00    +0.032 A 
ATOM      9  C   UNL     1     -31.169  -9.689  18.598  0.00  0.00    +0.105 A 
ATOM     10  C   UNL     1     -32.469 -10.148  18.362  0.00  0.00    +0.032 A 
ATOM     11  C   UNL     1     -32.856 -10.543  17.077  0.00  0.00    +0.047 A 
BRANCH   6  13
ATOM     12  C   UNL     1     -33.333 -11.758  14.377  0.00  0.00    +0.277 C 
ATOM     13  O   UNL     1     -32.278 -10.860  14.703  0.00  0.00    -0.495 OA
ENDBRANCH   6  13
ENDBRANCH   3   9
ENDBRANCH   1   3
BRANCH   1  14
ATOM     14  C   UNL     1     -30.043 -11.371  21.465  0.00  0.00    +0.110 C 
BRANCH  14  15
ATOM     15  C   UNL     1     -29.279 -12.638  21.061  0.00  0.00    +0.052 C 
BRANCH  15  16
ATOM     16  C   UNL     1     -29.518 -12.998  19.617  0.00  0.00    -0.046 A 
ATOM     17  C   UNL     1     -30.763 -13.497  19.204  0.00  0.00    +0.004 A 
ATOM     18  C   UNL     1     -30.970 -13.866  17.872  0.00  0.00    +0.012 A 
ATOM     19  C   UNL     1     -29.938 -13.729  16.926  0.00  0.00    +0.055 A 
ATOM     20  C   UNL     1     -28.683 -13.261  17.350  0.00  0.00    +0.012 A 
ATOM     21  C   UNL     1     -28.476 -12.893  18.683  0.00  0.00    +0.004 A 
BRANCH  19  22
ATOM     22  C   UNL     1     -30.145 -14.177  15.502  0.00  0.00    +0.417 C 
ATOM     23  F   UNL     1     -30.116 -13.095  14.639  0.00  0.00    -0.166 F 
ATOM     24  F   UNL     1     -29.152 -15.062  15.119  0.00  0.00    -0.166 F 
ATOM     25  F   UNL     1     -31.372 -14.805  15.396  0.00  0.00    -0.166 F 
ENDBRANCH  19  22
ENDBRANCH  15  16
ENDBRANCH  14  15
ENDBRANCH   1  14
TORSDOF 7
ENDMDL
MODEL 3
REMARK VINA RESULT:    -4.317      3.191      4.938
REMARK INTER + INTRA:          -9.118
REMARK INTER:                  -6.218
REMARK INTRA:                  -2.900
REMARK UNBOUND:                -3.035
REMARK  Name = 
REMARK  8 active torsions:
REMARK  status: ('A' for Active; 'I' for Inactive)
REMARK    1  A    between atoms: C_1  and  O_2
REMARK    2  A    between atoms: O_2  and  C_3
REMARK    3  A    between atoms: C_6  and  S_9
REMARK    4  A    between atoms: S_9  and  N_12
REMARK    5  A    between atoms: N_12  and  C_13
REMARK    6  A    between atoms: C_13  and  C_14
REMARK    7  A    between atoms: C_14  and  C_15
REMARK    8  A    between atoms: C_18  and  C_21
REMARK                            x       y       z     vdW  Elec       q    Type
REMARK                         _______ _______ _______ _____ _____    ______ ____
ROOT
ATOM      1  N   UNL     1     -28.142 -13.507  18.082  0.00  0.00    -0.190 NA
ATOM      2  H   UNL     1     -27.881 -13.260  17.099  0.00  0.00    +0.148 HD
ENDROOT
BRANCH   1   3
ATOM      3  S   UNL     1     -27.995 -12.042  19.004  0.00  0.00    +0.058 S 
ATOM      4  O   UNL     1     -26.722 -11.341  18.621  0.00  0.00    -0.153 OA
ATOM      5  O   UNL     1     -27.937 -12.368  20.470  0.00  0.00    -0.153 OA
BRANCH   3   9
ATOM      6  C   UNL     1     -31.558  -9.320  18.089  0.00  0.00    +0.120 A 
ATOM      7  C   UNL     1     -31.460  -9.961  19.330  0.00  0.00    +0.047 A 
ATOM      8  C   UNL     1     -30.368 -10.786  19.619  0.00  0.00    +0.032 A 
ATOM      9  C   UNL     1     -29.359 -10.976  18.667  0.00  0.00    +0.105 A 
ATOM     10  C   UNL     1     -29.453 -10.342  17.423  0.00  0.00    +0.032 A 
ATOM     11  C   UNL     1     -30.543  -9.516  17.132  0.00  0.00    +0.047 A 
BRANCH   6  13
ATOM     12  C   UNL     1     -33.981  -8.762  18.349  0.00  0.00    +0.277 C 
ATOM     13  O   UNL     1     -32.673  -8.504  17.847  0.00  0.00    -0.495 OA
ENDBRANCH   6  13
ENDBRANCH   3   9
ENDBRANCH   1   3
BRANCH   1  14
ATOM     14  C   UNL     1     -29.537 -13.957  18.093  0.00  0.00    +0.110 C 
BRANCH  14  15
ATOM     15  C   UNL     1     -29.982 -14.384  16.688  0.00  0.00    +0.052 C 
BRANCH  15  16
ATOM     16  C   UNL     1     -31.072 -13.492  16.152  0.00  0.00    -0.046 A 
ATOM     17  C   UNL     1     -30.947 -12.895  14.889  0.00  0.00    +0.004 A 
ATOM     18  C   UNL     1     -31.942 -12.038  14.411  0.00  0.00    +0.012 A 
ATOM     19  C   UNL     1     -33.088 -11.775  15.182  0.00  0.00    +0.055 A 
ATOM     20  C   UNL     1     -33.194 -12.349  16.461  0.00  0.00    +0.012 A 
ATOM     21  C   UNL     1     -32.198 -13.206  16.939  0.00  0.00    +0.004 A 
BRANCH  19  22
ATOM     22  C   UNL     1     -34.135 -10.810  14.689  0.00  0.00    +0.417 C 
ATOM     23  F   UNL     1     -34.810 -11.335  13.599  0.00  0.00    -0.166 F 
ATOM     24  F   UNL     1     -35.061 -10.543  15.683  0.00  0.00    -0.166 F 
ATOM     25  F   UNL     1     -33.524  -9.628  14.313  0.00  0.00    -0.166 F 
ENDBRANCH  19  22
ENDBRANCH  15  16
ENDBRANCH  14  15
ENDBRANCH   1  14
TORSDOF 7
ENDMDL
MODEL 4
REMARK VINA RESULT:    -4.203      3.351      5.127
REMARK INTER + INTRA:          -8.959
REMARK INTER:                  -5.464
REMARK INTRA:                  -3.494
REMARK UNBOUND:                -3.035
REMARK  Name = 
REMARK  8 active torsions:
REMARK  status: ('A' for Active; 'I' for Inactive)
REMARK    1  A    between atoms: C_1  and  O_2
REMARK    2  A    between atoms: O_2  and  C_3
REMARK    3  A    between atoms: C_6  and  S_9
REMARK    4  A    between atoms: S_9  and  N_12
REMARK    5  A    between atoms: N_12  and  C_13
REMARK    6  A    between atoms: C_13  and  C_14
REMARK    7  A    between atoms: C_14  and  C_15
REMARK    8  A    between atoms: C_18  and  C_21
REMARK                            x       y       z     vdW  Elec       q    Type
REMARK                         _______ _______ _______ _____ _____    ______ ____
ROOT
ATOM      1  N   UNL     1     -29.710 -14.451  17.949  0.00  0.00    -0.190 NA
ATOM      2  H   UNL     1     -29.248 -15.378  18.101  0.00  0.00    +0.148 HD
ENDROOT
BRANCH   1   3
ATOM      3  S   UNL     1     -28.831 -13.309  18.919  0.00  0.00    +0.058 S 
ATOM      4  O   UNL     1     -27.719 -12.715  18.102  0.00  0.00    -0.153 OA
ATOM      5  O   UNL     1     -28.230 -14.008  20.106  0.00  0.00    -0.153 OA
BRANCH   3   9
ATOM      6  C   UNL     1     -31.634  -9.939  20.235  0.00  0.00    +0.120 A 
ATOM      7  C   UNL     1     -31.973 -11.275  20.480  0.00  0.00    +0.047 A 
ATOM      8  C   UNL     1     -31.116 -12.308  20.090  0.00  0.00    +0.032 A 
ATOM      9  C   UNL     1     -29.905 -12.015  19.450  0.00  0.00    +0.105 A 
ATOM     10  C   UNL     1     -29.562 -10.682  19.198  0.00  0.00    +0.032 A 
ATOM     11  C   UNL     1     -30.417  -9.646  19.589  0.00  0.00    +0.047 A 
BRANCH   6  13
ATOM     12  C   UNL     1     -33.913  -9.154  20.899  0.00  0.00    +0.277 C 
ATOM     13  O   UNL     1     -32.528  -8.938  20.646  0.00  0.00    -0.495 OA
ENDBRANCH   6  13
ENDBRANCH   3   9
ENDBRANCH   1   3
BRANCH   1  14
ATOM     14  C   UNL     1     -29.581 -14.096  16.533  0.00  0.00    +0.110 C 
BRANCH  14  15
ATOM     15  C   UNL     1     -30.955 -14.070  15.852  0.00  0.00    +0.052 C 
BRANCH  15  16
ATOM     16  C   UNL     1     -31.664 -12.759  16.074  0.00  0.00    -0.046 A 
ATOM     17  C   UNL     1     -31.068 -11.551  15.681  0.00  0.00    +0.004 A 
ATOM     18  C   UNL     1     -31.711 -10.334  15.923  0.00  0.00    +0.012 A 
ATOM     19  C   UNL     1     -32.969 -10.305  16.550  0.00  0.00    +0.055 A 
ATOM     20  C   UNL     1     -33.548 -11.514  16.972  0.00  0.00    +0.012 A 
ATOM     21  C   UNL     1     -32.904 -12.731  16.731  0.00  0.00    +0.004 A 
BRANCH  19  22
ATOM     22  C   UNL     1     -33.638  -8.989  16.859  0.00  0.00    +0.417 C 
ATOM     23  F   UNL     1     -33.908  -8.292  15.693  0.00  0.00    -0.166 F 
ATOM     24  F   UNL     1     -34.833  -9.194  17.527  0.00  0.00    -0.166 F 
ATOM     25  F   UNL     1     -32.801  -8.230  17.655  0.00  0.00    -0.166 F 
ENDBRANCH  19  22
ENDBRANCH  15  16
ENDBRANCH  14  15
ENDBRANCH   1  14
TORSDOF 7
ENDMDL
MODEL 5
REMARK VINA RESULT:    -3.824      3.168      4.916
REMARK INTER + INTRA:          -8.423
REMARK INTER:                  -4.932
REMARK INTRA:                  -3.491
REMARK UNBOUND:                -3.035
REMARK  Name = 
REMARK  8 active torsions:
REMARK  status: ('A' for Active; 'I' for Inactive)
REMARK    1  A    between atoms: C_1  and  O_2
REMARK    2  A    between atoms: O_2  and  C_3
REMARK    3  A    between atoms: C_6  and  S_9
REMARK    4  A    between atoms: S_9  and  N_12
REMARK    5  A    between atoms: N_12  and  C_13
REMARK    6  A    between atoms: C_13  and  C_14
REMARK    7  A    between atoms: C_14  and  C_15
REMARK    8  A    between atoms: C_18  and  C_21
REMARK                            x       y       z     vdW  Elec       q    Type
REMARK                         _______ _______ _______ _____ _____    ______ ____
ROOT
ATOM      1  N   UNL     1     -31.500 -12.110  14.100  0.00  0.00    -0.190 NA
ATOM      2  H   UNL     1     -31.615 -11.804  13.106  0.00  0.00    +0.148 HD
ENDROOT
BRANCH   1   3
ATOM      3  S   UNL     1     -32.717 -11.269  15.009  0.00  0.00    +0.058 S 
ATOM      4  O   UNL     1     -33.801 -12.234  15.400  0.00  0.00    -0.153 OA
ATOM      5  O   UNL     1     -33.324 -10.186  14.163  0.00  0.00    -0.153 OA
BRANCH   3   9
ATOM      6  C   UNL     1     -30.880  -9.539  18.828  0.00  0.00    +0.120 A 
ATOM      7  C   UNL     1     -30.137  -9.576  17.641  0.00  0.00    +0.047 A 
ATOM      8  C   UNL     1     -30.697 -10.094  16.469  0.00  0.00    +0.032 A 
ATOM      9  C   UNL     1     -32.011 -10.579  16.471  0.00  0.00    +0.105 A 
ATOM     10  C   UNL     1     -32.757 -10.549  17.654  0.00  0.00    +0.032 A 
ATOM     11  C   UNL     1     -32.200 -10.031  18.827  0.00  0.00    +0.047 A 
BRANCH   6  13
ATOM     12  C   UNL     1     -30.794  -9.149  21.295  0.00  0.00    +0.277 C 
ATOM     13  O   UNL     1     -30.274  -9.010  19.977  0.00  0.00    -0.495 OA
ENDBRANCH   6  13
ENDBRANCH   3   9
ENDBRANCH   1   3
BRANCH   1  14
ATOM     14  C   UNL     1     -31.742 -13.554  14.171  0.00  0.00    +0.110 C 
BRANCH  14  15
ATOM     15  C   UNL     1     -30.507 -14.287  14.708  0.00  0.00    +0.052 C 
BRANCH  15  16
ATOM     16  C   UNL     1     -30.273 -13.991  16.167  0.00  0.00    -0.046 A 
ATOM     17  C   UNL     1     -31.299 -14.178  17.105  0.00  0.00    +0.004 A 
ATOM     18  C   UNL     1     -31.091 -13.866  18.452  0.00  0.00    +0.012 A 
ATOM     19  C   UNL     1     -29.847 -13.376  18.886  0.00  0.00    +0.055 A 
ATOM     20  C   UNL     1     -28.832 -13.159  17.938  0.00  0.00    +0.012 A 
ATOM     21  C   UNL     1     -29.041 -13.470  16.591  0.00  0.00    +0.004 A 
BRANCH  19  22
ATOM     22  C   UNL     1     -29.640 -12.990  20.329  0.00  0.00    +0.417 C 
ATOM     23  F   UNL     1     -29.010 -14.010  21.022  0.00  0.00    -0.166 F 
ATOM     24  F   UNL     1     -28.854 -11.854  20.423  0.00  0.00    -0.166 F 
ATOM     25  F   UNL     1     -30.867 -12.739  20.913  0.00  0.00    -0.166 F 
ENDBRANCH  19  22
ENDBRANCH  15  16
ENDBRANCH  14  15
ENDBRANCH   1  14
TORSDOF 7
ENDMDL
MODEL 6
REMARK VINA RESULT:    -3.813      4.001      6.078
REMARK INTER + INTRA:          -8.409
REMARK INTER:                  -5.292
REMARK INTRA:                  -3.117
REMARK UNBOUND:                -3.035
REMARK  Name = 
REMARK  8 active torsions:
REMARK  status: ('A' for Active; 'I' for Inactive)
REMARK    1  A    between atoms: C_1  and  O_2
REMARK    2  A    between atoms: O_2  and  C_3
REMARK    3  A    between atoms: C_6  and  S_9
REMARK    4  A    between atoms: S_9  and  N_12
REMARK    5  A    between atoms: N_12  and  C_13
REMARK    6  A    between atoms: C_13  and  C_14
REMARK    7  A    between atoms: C_14  and  C_15
REMARK    8  A    between atoms: C_18  and  C_21
REMARK                            x       y       z     vdW  Elec       q    Type
REMARK                         _______ _______ _______ _____ _____    ______ ____
ROOT
ATOM      1  N   UNL     1     -31.687 -14.304  13.239  0.00  0.00    -0.190 NA
ATOM      2  H   UNL     1     -32.058 -14.649  14.155  0.00  0.00    +0.148 HD
ENDROOT
BRANCH   1   3
ATOM      3  S   UNL     1     -32.475 -12.784  12.941  0.00  0.00    +0.058 S 
ATOM      4  O   UNL     1     -33.844 -13.037  12.376  0.00  0.00    -0.153 OA
ATOM      5  O   UNL     1     -31.684 -11.992  11.937  0.00  0.00    -0.153 OA
BRANCH   3   9
ATOM      6  C   UNL     1     -32.880 -10.493  16.881  0.00  0.00    +0.120 A 
ATOM      7  C   UNL     1     -31.739 -10.333  16.086  0.00  0.00    +0.047 A 
ATOM      8  C   UNL     1     -31.614 -11.022  14.876  0.00  0.00    +0.032 A 
ATOM      9  C   UNL     1     -32.634 -11.880  14.446  0.00  0.00    +0.105 A 
ATOM     10  C   UNL     1     -33.775 -12.049  15.238  0.00  0.00    +0.032 A 
ATOM     11  C   UNL     1     -33.903 -11.359  16.449  0.00  0.00    +0.047 A 
BRANCH   6  13
ATOM     12  C   UNL     1     -31.980  -8.844  18.530  0.00  0.00    +0.277 C 
ATOM     13  O   UNL     1     -32.957  -9.780  18.087  0.00  0.00    -0.495 OA
ENDBRANCH   6  13
ENDBRANCH   3   9
ENDBRANCH   1   3
BRANCH   1  14
ATOM     14  C   UNL     1     -30.243 -14.092  13.373  0.00  0.00    +0.110 C 
BRANCH  14  15
ATOM     15  C   UNL     1     -29.663 -14.982  14.480  0.00  0.00    +0.052 C 
BRANCH  15  16
ATOM     16  C   UNL     1     -29.981 -14.446  15.852  0.00  0.00    -0.046 A 
ATOM     17  C   UNL     1     -31.212 -14.733  16.461  0.00  0.00    +0.004 A 
ATOM     18  C   UNL     1     -31.520 -14.204  17.717  0.00  0.00    +0.012 A 
ATOM     19  C   UNL     1     -30.596 -13.388  18.393  0.00  0.00    +0.055 A 
ATOM     20  C   UNL     1     -29.377 -13.075  17.765  0.00  0.00    +0.012 A 
ATOM     21  C   UNL     1     -29.071 -13.605  16.508  0.00  0.00    +0.004 A 
BRANCH  19  22
ATOM     22  C   UNL     1     -30.949 -12.774  19.723  0.00  0.00    +0.417 C 
ATOM     23  F   UNL     1     -30.600 -13.621  20.762  0.00  0.00    -0.166 F 
ATOM     24  F   UNL     1     -30.281 -11.575  19.901  0.00  0.00    -0.166 F 
ATOM     25  F   UNL     1     -32.311 -12.543  19.770  0.00  0.00    -0.166 F 
ENDBRANCH  19  22
ENDBRANCH  15  16
ENDBRANCH  14  15
ENDBRANCH   1  14
TORSDOF 7
ENDMDL
MODEL 7
REMARK VINA RESULT:    -3.712      2.159      4.355
REMARK INTER + INTRA:          -8.266
REMARK INTER:                  -4.941
REMARK INTRA:                  -3.325
REMARK UNBOUND:                -3.035
REMARK  Name = 
REMARK  8 active torsions:
REMARK  status: ('A' for Active; 'I' for Inactive)
REMARK    1  A    between atoms: C_1  and  O_2
REMARK    2  A    between atoms: O_2  and  C_3
REMARK    3  A    between atoms: C_6  and  S_9
REMARK    4  A    between atoms: S_9  and  N_12
REMARK    5  A    between atoms: N_12  and  C_13
REMARK    6  A    between atoms: C_13  and  C_14
REMARK    7  A    between atoms: C_14  and  C_15
REMARK    8  A    between atoms: C_18  and  C_21
REMARK                            x       y       z     vdW  Elec       q    Type
REMARK                         _______ _______ _______ _____ _____    ______ ____
ROOT
ATOM      1  N   UNL     1     -30.868  -9.242  19.978  0.00  0.00    -0.190 NA
ATOM      2  H   UNL     1     -30.236  -9.567  19.210  0.00  0.00    +0.148 HD
ENDROOT
BRANCH   1   3
ATOM      3  S   UNL     1     -32.432  -9.017  19.255  0.00  0.00    +0.058 S 
ATOM      4  O   UNL     1     -32.684  -7.549  19.064  0.00  0.00    -0.153 OA
ATOM      5  O   UNL     1     -33.494  -9.570  20.163  0.00  0.00    -0.153 OA
BRANCH   3   9
ATOM      6  C   UNL     1     -32.541 -11.134  15.199  0.00  0.00    +0.120 A 
ATOM      7  C   UNL     1     -33.588 -11.304  16.113  0.00  0.00    +0.047 A 
ATOM      8  C   UNL     1     -33.565 -10.653  17.349  0.00  0.00    +0.032 A 
ATOM      9  C   UNL     1     -32.492  -9.818  17.685  0.00  0.00    +0.105 A 
ATOM     10  C   UNL     1     -31.440  -9.646  16.778  0.00  0.00    +0.032 A 
ATOM     11  C   UNL     1     -31.461 -10.297  15.540  0.00  0.00    +0.047 A 
BRANCH   6  13
ATOM     12  C   UNL     1     -33.822 -12.098  13.281  0.00  0.00    +0.277 C 
ATOM     13  O   UNL     1     -32.610 -11.811  13.972  0.00  0.00    -0.495 OA
ENDBRANCH   6  13
ENDBRANCH   3   9
ENDBRANCH   1   3
BRANCH   1  14
ATOM     14  C   UNL     1     -30.942 -10.295  20.995  0.00  0.00    +0.110 C 
BRANCH  14  15
ATOM     15  C   UNL     1     -29.758 -11.260  20.866  0.00  0.00    +0.052 C 
BRANCH  15  16
ATOM     16  C   UNL     1     -29.806 -12.035  19.574  0.00  0.00    -0.046 A 
ATOM     17  C   UNL     1     -28.792 -11.888  18.617  0.00  0.00    +0.004 A 
ATOM     18  C   UNL     1     -28.858 -12.578  17.403  0.00  0.00    +0.012 A 
ATOM     19  C   UNL     1     -29.936 -13.440  17.132  0.00  0.00    +0.055 A 
ATOM     20  C   UNL     1     -30.967 -13.560  18.080  0.00  0.00    +0.012 A 
ATOM     21  C   UNL     1     -30.900 -12.868  19.293  0.00  0.00    +0.004 A 
BRANCH  19  22
ATOM     22  C   UNL     1     -30.035 -14.143  15.802  0.00  0.00    +0.417 C 
ATOM     23  F   UNL     1     -31.246 -14.805  15.688  0.00  0.00    -0.166 F 
ATOM     24  F   UNL     1     -29.938 -13.236  14.762  0.00  0.00    -0.166 F 
ATOM     25  F   UNL     1     -29.008 -15.062  15.696  0.00  0.00    -0.166 F 
ENDBRANCH  19  22
ENDBRANCH  15  16
ENDBRANCH  14  15
ENDBRANCH   1  14
TORSDOF 7
ENDMDL
MODEL 8
REMARK VINA RESULT:    -3.677      2.559      4.305
REMARK INTER + INTRA:          -8.217
REMARK INTER:                  -5.103
REMARK INTRA:                  -3.114
REMARK UNBOUND:                -3.035
REMARK  Name = 
REMARK  8 active torsions:
REMARK  status: ('A' for Active; 'I' for Inactive)
REMARK    1  A    between atoms: C_1  and  O_2
REMARK    2  A    between atoms: O_2  and  C_3
REMARK    3  A    between atoms: C_6  and  S_9
REMARK    4  A    between atoms: S_9  and  N_12
REMARK    5  A    between atoms: N_12  and  C_13
REMARK    6  A    between atoms: C_13  and  C_14
REMARK    7  A    between atoms: C_14  and  C_15
REMARK    8  A    between atoms: C_18  and  C_21
REMARK                            x       y       z     vdW  Elec       q    Type
REMARK                         _______ _______ _______ _____ _____    ______ ____
ROOT
ATOM      1  N   UNL     1     -33.116  -8.777  16.976  0.00  0.00    -0.190 NA
ATOM      2  H   UNL     1     -32.123  -8.834  16.653  0.00  0.00    +0.148 HD
ENDROOT
BRANCH   1   3
ATOM      3  S   UNL     1     -33.907 -10.196  16.358  0.00  0.00    +0.058 S 
ATOM      4  O   UNL     1     -34.438  -9.908  14.982  0.00  0.00    -0.153 OA
ATOM      5  O   UNL     1     -35.061 -10.561  17.249  0.00  0.00    -0.153 OA
BRANCH   3   9
ATOM      6  C   UNL     1     -30.982 -13.706  16.095  0.00  0.00    +0.120 A 
ATOM      7  C   UNL     1     -31.003 -12.728  15.093  0.00  0.00    +0.047 A 
ATOM      8  C   UNL     1     -31.888 -11.648  15.173  0.00  0.00    +0.032 A 
ATOM      9  C   UNL     1     -32.761 -11.532  16.262  0.00  0.00    +0.105 A 
ATOM     10  C   UNL     1     -32.749 -12.508  17.264  0.00  0.00    +0.032 A 
ATOM     11  C   UNL     1     -31.864 -13.589  17.187  0.00  0.00    +0.047 A 
BRANCH   6  13
ATOM     12  C   UNL     1     -29.123 -14.892  14.918  0.00  0.00    +0.277 C 
ATOM     13  O   UNL     1     -30.077 -14.770  15.968  0.00  0.00    -0.495 OA
ENDBRANCH   6  13
ENDBRANCH   3   9
ENDBRANCH   1   3
BRANCH   1  14
ATOM     14  C   UNL     1     -33.130  -8.804  18.441  0.00  0.00    +0.110 C 
BRANCH  14  15
ATOM     15  C   UNL     1     -31.768  -8.385  19.006  0.00  0.00    +0.052 C 
BRANCH  15  16
ATOM     16  C   UNL     1     -30.800  -9.539  19.045  0.00  0.00    -0.046 A 
ATOM     17  C   UNL     1     -29.901  -9.750  17.988  0.00  0.00    +0.004 A 
ATOM     18  C   UNL     1     -29.030 -10.843  18.008  0.00  0.00    +0.012 A 
ATOM     19  C   UNL     1     -29.033 -11.737  19.094  0.00  0.00    +0.055 A 
ATOM     20  C   UNL     1     -29.958 -11.541  20.135  0.00  0.00    +0.012 A 
ATOM     21  C   UNL     1     -30.829 -10.448  20.113  0.00  0.00    +0.004 A 
BRANCH  19  22
ATOM     22  C   UNL     1     -28.132 -12.945  19.091  0.00  0.00    +0.417 C 
ATOM     23  F   UNL     1     -26.858 -12.606  19.516  0.00  0.00    -0.166 F 
ATOM     24  F   UNL     1     -28.624 -13.924  19.936  0.00  0.00    -0.166 F 
ATOM     25  F   UNL     1     -28.058 -13.454  17.808  0.00  0.00    -0.166 F 
ENDBRANCH  19  22
ENDBRANCH  15  16
ENDBRANCH  14  15
ENDBRANCH   1  14
TORSDOF 7
ENDMDL
MODEL 9
REMARK VINA RESULT:    -3.614      3.593      5.128
REMARK INTER + INTRA:          -8.128
REMARK INTER:                  -4.699
REMARK INTRA:                  -3.429
REMARK UNBOUND:                -3.035
REMARK  Name = 
REMARK  8 active torsions:
REMARK  status: ('A' for Active; 'I' for Inactive)
REMARK    1  A    between atoms: C_1  and  O_2
REMARK    2  A    between atoms: O_2  and  C_3
REMARK    3  A    between atoms: C_6  and  S_9
REMARK    4  A    between atoms: S_9  and  N_12
REMARK    5  A    between atoms: N_12  and  C_13
REMARK    6  A    between atoms: C_13  and  C_14
REMARK    7  A    between atoms: C_14  and  C_15
REMARK    8  A    between atoms: C_18  and  C_21
REMARK                            x       y       z     vdW  Elec       q    Type
REMARK                         _______ _______ _______ _____ _____    ______ ____
ROOT
ATOM      1  N   UNL     1     -30.181 -12.902  14.948  0.00  0.00    -0.190 NA
ATOM      2  H   UNL     1     -30.365 -11.896  15.170  0.00  0.00    +0.148 HD
ENDROOT
BRANCH   1   3
ATOM      3  S   UNL     1     -29.721 -13.652  16.447  0.00  0.00    +0.058 S 
ATOM      4  O   UNL     1     -28.245 -13.930  16.431  0.00  0.00    -0.153 OA
ATOM      5  O   UNL     1     -30.451 -14.956  16.606  0.00  0.00    -0.153 OA
BRANCH   3   9
ATOM      6  C   UNL     1     -30.699 -10.823  19.909  0.00  0.00    +0.120 A 
ATOM      7  C   UNL     1     -31.369 -12.046  19.786  0.00  0.00    +0.047 A 
ATOM      8  C   UNL     1     -31.068 -12.919  18.736  0.00  0.00    +0.032 A 
ATOM      9  C   UNL     1     -30.087 -12.578  17.797  0.00  0.00    +0.105 A 
ATOM     10  C   UNL     1     -29.416 -11.354  17.911  0.00  0.00    +0.032 A 
ATOM     11  C   UNL     1     -29.716 -10.480  18.961  0.00  0.00    +0.047 A 
BRANCH   6  13
ATOM     12  C   UNL     1     -31.901 -10.353  22.050  0.00  0.00    +0.277 C 
ATOM     13  O   UNL     1     -31.038  -9.982  20.979  0.00  0.00    -0.495 OA
ENDBRANCH   6  13
ENDBRANCH   3   9
ENDBRANCH   1   3
BRANCH   1  14
ATOM     14  C   UNL     1     -31.424 -13.504  14.458  0.00  0.00    +0.110 C 
BRANCH  14  15
ATOM     15  C   UNL     1     -32.413 -12.421  14.011  0.00  0.00    +0.052 C 
BRANCH  15  16
ATOM     16  C   UNL     1     -32.824 -11.533  15.157  0.00  0.00    -0.046 A 
ATOM     17  C   UNL     1     -32.196 -10.295  15.360  0.00  0.00    +0.004 A 
ATOM     18  C   UNL     1     -32.552  -9.490  16.446  0.00  0.00    +0.012 A 
ATOM     19  C   UNL     1     -33.554  -9.904  17.341  0.00  0.00    +0.055 A 
ATOM     20  C   UNL     1     -34.158 -11.160  17.154  0.00  0.00    +0.012 A 
ATOM     21  C   UNL     1     -33.800 -11.964  16.068  0.00  0.00    +0.004 A 
BRANCH  19  22
ATOM     22  C   UNL     1     -33.901  -9.061  18.542  0.00  0.00    +0.417 C 
ATOM     23  F   UNL     1     -32.806  -8.319  18.951  0.00  0.00    -0.166 F 
ATOM     24  F   UNL     1     -34.930  -8.185  18.243  0.00  0.00    -0.166 F 
ATOM     25  F   UNL     1     -34.298  -9.886  19.577  0.00  0.00    -0.166 F 
ENDBRANCH  19  22
ENDBRANCH  15  16
ENDBRANCH  14  15
ENDBRANCH   1  14
TORSDOF 7
ENDMDL
