MODEL 1
REMARK VINA RESULT:    -4.873      0.000      0.000
REMARK INTER + INTRA:          -7.026
REMARK INTER:                  -6.298
REMARK INTRA:                  -0.728
REMARK UNBOUND:                -0.728
REMARK  Name = 
REMARK  7 active torsions:
REMARK  status: ('A' for Active; 'I' for Inactive)
REMARK    1  A    between atoms: C_1  and  C_2
REMARK    2  A    between atoms: C_2  and  C_3
REMARK    3  A    between atoms: C_2  and  N_4
REMARK    4  A    between atoms: C_14  and  C_15
REMARK    5  A    between atoms: C_15  and  C_16
REMARK    6  A    between atoms: C_15  and  S_18
REMARK    7  A    between atoms: S_18  and  C_21
REMARK                            x       y       z     vdW  Elec       q    Type
REMARK                         _______ _______ _______ _____ _____    ______ ____
ROOT
ATOM      1  N   UNL     1     -32.514 -10.267  18.581  0.00  0.00    -0.325 N 
ATOM      2  C   UNL     1     -32.244 -10.992  17.361  0.00  0.00    +0.144 A 
ATOM      3  N   UNL     1     -33.198 -11.049  16.390  0.00  0.00    -0.229 NA
ATOM      4  C   UNL     1     -32.987 -11.674  15.206  0.00  0.00    +0.091 A 
ATOM      5  C   UNL     1     -33.988 -11.712  14.229  0.00  0.00    +0.030 A 
ATOM      6  C   UNL     1     -33.745 -12.351  13.008  0.00  0.00    +0.002 A 
ATOM      7  C   UNL     1     -32.503 -12.949  12.763  0.00  0.00    +0.002 A 
ATOM      8  C   UNL     1     -31.500 -12.912  13.737  0.00  0.00    +0.030 A 
ATOM      9  C   UNL     1     -31.742 -12.275  14.960  0.00  0.00    +0.090 A 
ATOM     10  N   UNL     1     -30.786 -12.232  15.920  0.00  0.00    -0.244 NA
ATOM     11  C   UNL     1     -30.996 -11.629  17.127  0.00  0.00    +0.120 A 
ATOM     12  H   UNL     1     -31.727 -10.008  19.213  0.00  0.00    +0.148 HD
ENDROOT
BRANCH   1  14
ATOM     13  C   UNL     1     -34.175  -8.427  18.491  0.00  0.00    +0.027 C 
ATOM     14  C   UNL     1     -33.847  -9.829  19.017  0.00  0.00    +0.066 C 
ATOM     15  C   UNL     1     -33.999  -9.920  20.540  0.00  0.00    +0.027 C 
ENDBRANCH   1  14
BRANCH  11  16
ATOM     16  C   UNL     1     -29.871 -11.622  18.139  0.00  0.00    +0.289 C 
BRANCH  16  17
ATOM     17  S   UNL     1     -30.181 -12.846  19.407  0.00  0.00    +0.018 S 
ATOM     18  O   UNL     1     -31.123 -12.286  20.436  0.00  0.00    -0.168 OA
ATOM     19  O   UNL     1     -30.807 -14.072  18.804  0.00  0.00    -0.168 OA
BRANCH  17  20
ATOM     20  C   UNL     1     -28.657 -13.291  20.169  0.00  0.00    +0.090 A 
ATOM     21  C   UNL     1     -28.659 -13.882  21.441  0.00  0.00    +0.030 A 
ATOM     22  C   UNL     1     -27.453 -14.254  22.044  0.00  0.00    +0.040 A 
ATOM     23  C   UNL     1     -26.242 -14.043  21.378  0.00  0.00    +0.124 A 
ATOM     24  F   UNL     1     -25.075 -14.406  21.963  0.00  0.00    -0.205 F 
ATOM     25  C   UNL     1     -26.237 -13.461  20.106  0.00  0.00    +0.040 A 
ATOM     26  C   UNL     1     -27.441 -13.089  19.501  0.00  0.00    +0.030 A 
ENDBRANCH  17  20
ENDBRANCH  16  17
BRANCH  16  27
ATOM     27  C   UNL     1     -29.727 -10.299  18.766  0.00  0.00    +0.096 C 
ATOM     28  N   UNL     1     -29.614  -9.258  19.259  0.00  0.00    -0.194 NA
ENDBRANCH  16  27
ENDBRANCH  11  16
TORSDOF 5
ENDMDL
MODEL 2
REMARK VINA RESULT:    -4.618      1.520      3.487
REMARK INTER + INTRA:          -6.695
REMARK INTER:                  -6.699
REMARK INTRA:                   0.004
REMARK UNBOUND:                -0.728
REMARK  Name = 
REMARK  7 active torsions:
REMARK  status: ('A' for Active; 'I' for Inactive)
REMARK    1  A    between atoms: C_1  and  C_2
REMARK    2  A    between atoms: C_2  and  C_3
REMARK    3  A    between atoms: C_2  and  N_4
REMARK    4  A    between atoms: C_14  and  C_15
REMARK    5  A    between atoms: C_15  and  C_16
REMARK    6  A    between atoms: C_15  and  S_18
REMARK    7  A    between atoms: S_18  and  C_21
REMARK                            x       y       z     vdW  Elec       q    Type
REMARK                         _______ _______ _______ _____ _____    ______ ____
ROOT
ATOM      1  N   UNL     1     -30.018 -13.593  15.836  0.00  0.00    -0.325 N 
ATOM      2  C   UNL     1     -30.912 -12.460  15.864  0.00  0.00    +0.144 A 
ATOM      3  N   UNL     1     -31.881 -12.347  14.914  0.00  0.00    -0.229 NA
ATOM      4  C   UNL     1     -32.780 -11.332  14.915  0.00  0.00    +0.091 A 
ATOM      5  C   UNL     1     -33.764 -11.248  13.924  0.00  0.00    +0.030 A 
ATOM      6  C   UNL     1     -34.690 -10.199  13.950  0.00  0.00    +0.002 A 
ATOM      7  C   UNL     1     -34.634  -9.238  14.967  0.00  0.00    +0.002 A 
ATOM      8  C   UNL     1     -33.651  -9.319  15.958  0.00  0.00    +0.030 A 
ATOM      9  C   UNL     1     -32.723 -10.366  15.932  0.00  0.00    +0.090 A 
ATOM     10  N   UNL     1     -31.758 -10.462  16.881  0.00  0.00    -0.244 NA
ATOM     11  C   UNL     1     -30.833 -11.465  16.875  0.00  0.00    +0.120 A 
ATOM     12  H   UNL     1     -29.446 -13.822  16.678  0.00  0.00    +0.148 HD
ENDROOT
BRANCH   1  14
ATOM     13  C   UNL     1     -28.392 -14.951  14.546  0.00  0.00    +0.027 C 
ATOM     14  C   UNL     1     -29.849 -14.499  14.692  0.00  0.00    +0.066 C 
ATOM     15  C   UNL     1     -30.390 -13.879  13.399  0.00  0.00    +0.027 C 
ENDBRANCH   1  14
BRANCH  11  16
ATOM     16  C   UNL     1     -29.794 -11.499  17.976  0.00  0.00    +0.289 C 
BRANCH  16  17
ATOM     17  S   UNL     1     -30.179 -12.802  19.140  0.00  0.00    +0.018 S 
ATOM     18  O   UNL     1     -31.225 -12.325  20.110  0.00  0.00    -0.168 OA
ATOM     19  O   UNL     1     -30.712 -14.005  18.416  0.00  0.00    -0.168 OA
BRANCH  17  20
ATOM     20  C   UNL     1     -28.717 -13.252  20.012  0.00  0.00    +0.090 A 
ATOM     21  C   UNL     1     -28.812 -13.818  21.291  0.00  0.00    +0.030 A 
ATOM     22  C   UNL     1     -27.655 -14.195  21.981  0.00  0.00    +0.040 A 
ATOM     23  C   UNL     1     -26.399 -14.014  21.394  0.00  0.00    +0.124 A 
ATOM     24  F   UNL     1     -25.279 -14.381  22.062  0.00  0.00    -0.205 F 
ATOM     25  C   UNL     1     -26.301 -13.457  20.114  0.00  0.00    +0.040 A 
ATOM     26  C   UNL     1     -27.456 -13.080  19.423  0.00  0.00    +0.030 A 
ENDBRANCH  17  20
ENDBRANCH  16  17
BRANCH  16  27
ATOM     27  C   UNL     1     -29.731 -10.213  18.688  0.00  0.00    +0.096 C 
ATOM     28  N   UNL     1     -29.681  -9.201  19.247  0.00  0.00    -0.194 NA
ENDBRANCH  16  27
ENDBRANCH  11  16
TORSDOF 5
ENDMDL
MODEL 3
REMARK VINA RESULT:    -4.425      1.725      2.465
REMARK INTER + INTRA:          -6.446
REMARK INTER:                  -5.341
REMARK INTRA:                  -1.105
REMARK UNBOUND:                -0.728
REMARK  Name = 
REMARK  7 active torsions:
REMARK  status: ('A' for Active; 'I' for Inactive)
REMARK    1  A    between atoms: C_1  and  C_2
REMARK    2  A    between atoms: C_2  and  C_3
REMARK    3  A    between atoms: C_2  and  N_4
REMARK    4  A    between atoms: C_14  and  C_15
REMARK    5  A    between atoms: C_15  and  C_16
REMARK    6  A    between atoms: C_15  and  S_18
REMARK    7  A    between atoms: S_18  and  C_21
REMARK                            x       y       z     vdW  Elec       q    Type
REMARK                         _______ _______ _______ _____ _____    ______ ____
ROOT
ATOM      1  N   UNL     1     -32.919 -10.624  19.997  0.00  0.00    -0.325 N 
ATOM      2  C   UNL     1     -33.007 -10.949  18.592  0.00  0.00    +0.144 A 
ATOM      3  N   UNL     1     -33.905 -10.293  17.807  0.00  0.00    -0.229 NA
ATOM      4  C   UNL     1     -34.002 -10.520  16.474  0.00  0.00    +0.091 A 
ATOM      5  C   UNL     1     -34.935  -9.827  15.696  0.00  0.00    +0.030 A 
ATOM      6  C   UNL     1     -35.010 -10.067  14.320  0.00  0.00    +0.002 A 
ATOM      7  C   UNL     1     -34.150 -10.997  13.721  0.00  0.00    +0.002 A 
ATOM      8  C   UNL     1     -33.216 -11.692  14.497  0.00  0.00    +0.030 A 
ATOM      9  C   UNL     1     -33.142 -11.454  15.873  0.00  0.00    +0.090 A 
ATOM     10  N   UNL     1     -32.247 -12.120  16.645  0.00  0.00    -0.244 NA
ATOM     11  C   UNL     1     -32.159 -11.918  17.992  0.00  0.00    +0.120 A 
ATOM     12  H   UNL     1     -32.088 -10.929  20.547  0.00  0.00    +0.148 HD
ENDROOT
BRANCH   1  14
ATOM     13  C   UNL     1     -33.477  -8.407  20.959  0.00  0.00    +0.027 C 
ATOM     14  C   UNL     1     -33.926  -9.857  20.743  0.00  0.00    +0.066 C 
ATOM     15  C   UNL     1     -34.294 -10.545  22.062  0.00  0.00    +0.027 C 
ENDBRANCH   1  14
BRANCH  11  16
ATOM     16  C   UNL     1     -31.127 -12.700  18.776  0.00  0.00    +0.289 C 
BRANCH  16  17
ATOM     17  S   UNL     1     -29.743 -11.645  19.190  0.00  0.00    +0.018 S 
ATOM     18  O   UNL     1     -29.164 -11.049  17.937  0.00  0.00    -0.168 OA
ATOM     19  O   UNL     1     -30.193 -10.526  20.087  0.00  0.00    -0.168 OA
BRANCH  17  20
ATOM     20  C   UNL     1     -28.517 -12.594  20.023  0.00  0.00    +0.090 A 
ATOM     21  C   UNL     1     -27.226 -12.695  19.484  0.00  0.00    +0.030 A 
ATOM     22  C   UNL     1     -26.242 -13.433  20.150  0.00  0.00    +0.040 A 
ATOM     23  C   UNL     1     -26.541 -14.068  21.359  0.00  0.00    +0.124 A 
ATOM     24  F   UNL     1     -25.587 -14.781  22.005  0.00  0.00    -0.205 F 
ATOM     25  C   UNL     1     -27.825 -13.964  21.903  0.00  0.00    +0.040 A 
ATOM     26  C   UNL     1     -28.810 -13.226  21.239  0.00  0.00    +0.030 A 
ENDBRANCH  17  20
ENDBRANCH  16  17
BRANCH  16  27
ATOM     27  C   UNL     1     -30.643 -13.859  18.009  0.00  0.00    +0.096 C 
ATOM     28  N   UNL     1     -30.262 -14.770  17.407  0.00  0.00    -0.194 NA
ENDBRANCH  16  27
ENDBRANCH  11  16
TORSDOF 5
ENDMDL
MODEL 4
REMARK VINA RESULT:    -4.350      3.419      6.176
REMARK INTER + INTRA:          -6.349
REMARK INTER:                  -5.484
REMARK INTRA:                  -0.866
REMARK UNBOUND:                -0.728
REMARK  Name = 
REMARK  7 active torsions:
REMARK  status: ('A' for Active; 'I' for Inactive)
REMARK    1  A    between atoms: C_1  and  C_2
REMARK    2  A    between atoms: C_2  and  C_3
REMARK    3  A    between atoms: C_2  and  N_4
REMARK    4  A    between atoms: C_14  and  C_15
REMARK    5  A    between atoms: C_15  and  C_16
REMARK    6  A    between atoms: C_15  and  S_18
REMARK    7  A    between atoms: S_18  and  C_21
REMARK                            x       y       z     vdW  Elec       q    Type
REMARK                         _______ _______ _______ _____ _____    ______ ____
ROOT
ATOM      1  N   UNL     1     -29.742 -12.846  19.095  0.00  0.00    -0.325 N 
ATOM      2  C   UNL     1     -30.082 -12.962  17.696  0.00  0.00    +0.144 A 
ATOM      3  N   UNL     1     -29.368 -13.808  16.902  0.00  0.00    -0.229 NA
ATOM      4  C   UNL     1     -29.668 -13.995  15.593  0.00  0.00    +0.091 A 
ATOM      5  C   UNL     1     -28.916 -14.873  14.805  0.00  0.00    +0.030 A 
ATOM      6  C   UNL     1     -29.250 -15.061  13.459  0.00  0.00    +0.002 A 
ATOM      7  C   UNL     1     -30.337 -14.375  12.903  0.00  0.00    +0.002 A 
ATOM      8  C   UNL     1     -31.091 -13.497  13.688  0.00  0.00    +0.030 A 
ATOM      9  C   UNL     1     -30.756 -13.306  15.033  0.00  0.00    +0.090 A 
ATOM     10  N   UNL     1     -31.471 -12.455  15.811  0.00  0.00    -0.244 NA
ATOM     11  C   UNL     1     -31.162 -12.239  17.123  0.00  0.00    +0.120 A 
ATOM     12  H   UNL     1     -30.418 -12.406  19.756  0.00  0.00    +0.148 HD
ENDROOT
BRANCH   1  14
ATOM     13  C   UNL     1     -28.645 -13.545  21.207  0.00  0.00    +0.027 C 
ATOM     14  C   UNL     1     -28.492 -13.330  19.697  0.00  0.00    +0.066 C 
ATOM     15  C   UNL     1     -27.314 -12.406  19.365  0.00  0.00    +0.027 C 
ENDBRANCH   1  14
BRANCH  11  16
ATOM     16  C   UNL     1     -32.017 -11.277  17.920  0.00  0.00    +0.289 C 
BRANCH  16  17
ATOM     17  S   UNL     1     -31.151  -9.728  18.141  0.00  0.00    +0.018 S 
ATOM     18  O   UNL     1     -30.066  -9.893  19.170  0.00  0.00    -0.168 OA
ATOM     19  O   UNL     1     -30.520  -9.295  16.848  0.00  0.00    -0.168 OA
BRANCH  17  20
ATOM     20  C   UNL     1     -32.292  -8.495  18.669  0.00  0.00    +0.090 A 
ATOM     21  C   UNL     1     -33.553  -8.405  18.062  0.00  0.00    +0.030 A 
ATOM     22  C   UNL     1     -34.470  -7.439  18.489  0.00  0.00    +0.040 A 
ATOM     23  C   UNL     1     -34.135  -6.564  19.526  0.00  0.00    +0.124 A 
ATOM     24  F   UNL     1     -35.025  -5.630  19.940  0.00  0.00    -0.205 F 
ATOM     25  C   UNL     1     -32.880  -6.656  20.139  0.00  0.00    +0.040 A 
ATOM     26  C   UNL     1     -31.962  -7.621  19.714  0.00  0.00    +0.030 A 
ENDBRANCH  17  20
ENDBRANCH  16  17
BRANCH  16  27
ATOM     27  C   UNL     1     -32.360 -11.836  19.237  0.00  0.00    +0.096 C 
ATOM     28  N   UNL     1     -32.630 -12.275  20.272  0.00  0.00    -0.194 NA
ENDBRANCH  16  27
ENDBRANCH  11  16
TORSDOF 5
ENDMDL
MODEL 5
REMARK VINA RESULT:    -4.240      3.473      7.038
REMARK INTER + INTRA:          -6.207
REMARK INTER:                  -5.232
REMARK INTRA:                  -0.975
REMARK UNBOUND:                -0.728
REMARK  Name = 
REMARK  7 active torsions:
REMARK  status: ('A' for Active; 'I' for Inactive)
REMARK    1  A    between atoms: C_1  and  C_2
REMARK    2  A    between atoms: C_2  and  C_3
REMARK    3  A    between atoms: C_2  and  N_4
REMARK    4  A    between atoms: C_14  and  C_15
REMARK    5  A    between atoms: C_15  and  C_16
REMARK    6  A    between atoms: C_15  and  S_18
REMARK    7  A    between atoms: S_18  and  C_21
REMARK                            x       y       z     vdW  Elec       q    Type
REMARK                         _______ _______ _______ _____ _____    ______ ____
ROOT
ATOM      1  N   UNL     1     -29.960 -11.370  19.020  0.00  0.00    -0.325 N 
ATOM      2  C   UNL     1     -30.701 -10.147  19.222  0.00  0.00    +0.144 A 
ATOM      3  N   UNL     1     -30.262  -9.241  20.139  0.00  0.00    -0.229 NA
ATOM      4  C   UNL     1     -30.887  -8.056  20.340  0.00  0.00    +0.091 A 
ATOM      5  C   UNL     1     -30.408  -7.146  21.289  0.00  0.00    +0.030 A 
ATOM      6  C   UNL     1     -31.061  -5.922  21.473  0.00  0.00    +0.002 A 
ATOM      7  C   UNL     1     -32.190  -5.606  20.706  0.00  0.00    +0.002 A 
ATOM      8  C   UNL     1     -32.671  -6.514  19.756  0.00  0.00    +0.030 A 
ATOM      9  C   UNL     1     -32.021  -7.739  19.573  0.00  0.00    +0.090 A 
ATOM     10  N   UNL     1     -32.473  -8.635  18.662  0.00  0.00    -0.244 NA
ATOM     11  C   UNL     1     -31.867  -9.843  18.469  0.00  0.00    +0.120 A 
ATOM     12  H   UNL     1     -30.135 -11.946  18.168  0.00  0.00    +0.148 HD
ENDROOT
BRANCH   1  14
ATOM     13  C   UNL     1     -27.622 -12.183  19.186  0.00  0.00    +0.027 C 
ATOM     14  C   UNL     1     -28.929 -11.885  19.931  0.00  0.00    +0.066 C 
ATOM     15  C   UNL     1     -29.429 -13.100  20.719  0.00  0.00    +0.027 C 
ENDBRANCH   1  14
BRANCH  11  16
ATOM     16  C   UNL     1     -32.435 -10.781  17.426  0.00  0.00    +0.289 C 
BRANCH  16  17
ATOM     17  S   UNL     1     -31.897 -10.281  15.795  0.00  0.00    +0.018 S 
ATOM     18  O   UNL     1     -32.972  -9.464  15.132  0.00  0.00    -0.168 OA
ATOM     19  O   UNL     1     -30.653  -9.443  15.892  0.00  0.00    -0.168 OA
BRANCH  17  20
ATOM     20  C   UNL     1     -31.555 -11.714  14.831  0.00  0.00    +0.090 A 
ATOM     21  C   UNL     1     -32.174 -11.882  13.584  0.00  0.00    +0.030 A 
ATOM     22  C   UNL     1     -31.893 -13.009  12.806  0.00  0.00    +0.040 A 
ATOM     23  C   UNL     1     -30.988 -13.970  13.266  0.00  0.00    +0.124 A 
ATOM     24  F   UNL     1     -30.714 -15.062  12.511  0.00  0.00    -0.205 F 
ATOM     25  C   UNL     1     -30.362 -13.803  14.506  0.00  0.00    +0.040 A 
ATOM     26  C   UNL     1     -30.642 -12.676  15.286  0.00  0.00    +0.030 A 
ENDBRANCH  17  20
ENDBRANCH  16  17
BRANCH  16  27
ATOM     27  C   UNL     1     -33.906 -10.797  17.470  0.00  0.00    +0.096 C 
ATOM     28  N   UNL     1     -35.062 -10.811  17.505  0.00  0.00    -0.194 NA
ENDBRANCH  16  27
ENDBRANCH  11  16
TORSDOF 5
ENDMDL
MODEL 6
REMARK VINA RESULT:    -4.094      1.297      1.483
REMARK INTER + INTRA:          -6.018
REMARK INTER:                  -5.972
REMARK INTRA:                  -0.047
REMARK UNBOUND:                -0.728
REMARK  Name = 
REMARK  7 active torsions:
REMARK  status: ('A' for Active; 'I' for Inactive)
REMARK    1  A    between atoms: C_1  and  C_2
REMARK    2  A    between atoms: C_2  and  C_3
REMARK    3  A    between atoms: C_2  and  N_4
REMARK    4  A    between atoms: C_14  and  C_15
REMARK    5  A    between atoms: C_15  and  C_16
REMARK    6  A    between atoms: C_15  and  S_18
REMARK    7  A    between atoms: S_18  and  C_21
REMARK                            x       y       z     vdW  Elec       q    Type
REMARK                         _______ _______ _______ _____ _____    ______ ____
ROOT
ATOM      1  N   UNL     1     -33.159  -9.409  17.075  0.00  0.00    -0.325 N 
ATOM      2  C   UNL     1     -32.824 -10.422  16.100  0.00  0.00    +0.144 A 
ATOM      3  N   UNL     1     -33.625 -10.596  15.013  0.00  0.00    -0.229 NA
ATOM      4  C   UNL     1     -33.338 -11.497  14.042  0.00  0.00    +0.091 A 
ATOM      5  C   UNL     1     -34.182 -11.649  12.936  0.00  0.00    +0.030 A 
ATOM      6  C   UNL     1     -33.861 -12.576  11.938  0.00  0.00    +0.002 A 
ATOM      7  C   UNL     1     -32.697 -13.348  12.044  0.00  0.00    +0.002 A 
ATOM      8  C   UNL     1     -31.852 -13.198  13.148  0.00  0.00    +0.030 A 
ATOM      9  C   UNL     1     -32.172 -12.273  14.148  0.00  0.00    +0.090 A 
ATOM     10  N   UNL     1     -31.370 -12.115  15.230  0.00  0.00    -0.244 NA
ATOM     11  C   UNL     1     -31.662 -11.229  16.226  0.00  0.00    +0.120 A 
ATOM     12  H   UNL     1     -32.442  -9.099  17.765  0.00  0.00    +0.148 HD
ENDROOT
BRANCH   1  14
ATOM     13  C   UNL     1     -34.703  -7.811  15.972  0.00  0.00    +0.027 C 
ATOM     14  C   UNL     1     -34.462  -8.737  17.170  0.00  0.00    +0.066 C 
ATOM     15  C   UNL     1     -34.618  -7.999  18.505  0.00  0.00    +0.027 C 
ENDBRANCH   1  14
BRANCH  11  16
ATOM     16  C   UNL     1     -30.708 -11.113  17.395  0.00  0.00    +0.289 C 
BRANCH  16  17
ATOM     17  S   UNL     1     -31.063 -12.381  18.605  0.00  0.00    +0.018 S 
ATOM     18  O   UNL     1     -32.112 -11.890  19.565  0.00  0.00    -0.168 OA
ATOM     19  O   UNL     1     -31.581 -13.618  17.926  0.00  0.00    -0.168 OA
BRANCH  17  20
ATOM     20  C   UNL     1     -29.589 -12.778  19.482  0.00  0.00    +0.090 A 
ATOM     21  C   UNL     1     -29.659 -13.166  20.828  0.00  0.00    +0.030 A 
ATOM     22  C   UNL     1     -28.493 -13.500  21.525  0.00  0.00    +0.040 A 
ATOM     23  C   UNL     1     -27.254 -13.453  20.880  0.00  0.00    +0.124 A 
ATOM     24  F   UNL     1     -26.125 -13.778  21.555  0.00  0.00    -0.205 F 
ATOM     25  C   UNL     1     -27.181 -13.074  19.535  0.00  0.00    +0.040 A 
ATOM     26  C   UNL     1     -28.345 -12.740  18.837  0.00  0.00    +0.030 A 
ENDBRANCH  17  20
ENDBRANCH  16  17
BRANCH  16  27
ATOM     27  C   UNL     1     -30.805  -9.790  18.032  0.00  0.00    +0.096 C 
ATOM     28  N   UNL     1     -30.882  -8.750  18.533  0.00  0.00    -0.194 NA
ENDBRANCH  16  27
ENDBRANCH  11  16
TORSDOF 5
ENDMDL
MODEL 7
REMARK VINA RESULT:    -4.070      3.626      6.102
REMARK INTER + INTRA:          -5.987
REMARK INTER:                  -5.266
REMARK INTRA:                  -0.722
REMARK UNBOUND:                -0.728
REMARK  Name = 
REMARK  7 active torsions:
REMARK  status: ('A' for Active; 'I' for Inactive)
REMARK    1  A    between atoms: C_1  and  C_2
REMARK    2  A    between atoms: C_2  and  C_3
REMARK    3  A    between atoms: C_2  and  N_4
REMARK    4  A    between atoms: C_14  and  C_15
REMARK    5  A    between atoms: C_15  and  C_16
REMARK    6  A    between atoms: C_15  and  S_18
REMARK    7  A    between atoms: S_18  and  C_21
REMARK                            x       y       z     vdW  Elec       q    Type
REMARK                         _______ _______ _______ _____ _____    ______ ____
ROOT
ATOM      1  N   UNL     1     -33.491  -9.898  15.901  0.00  0.00    -0.325 N 
ATOM      2  C   UNL     1     -33.008  -9.267  17.108  0.00  0.00    +0.144 A 
ATOM      3  N   UNL     1     -33.821  -8.412  17.788  0.00  0.00    -0.229 NA
ATOM      4  C   UNL     1     -33.442  -7.827  18.951  0.00  0.00    +0.091 A 
ATOM      5  C   UNL     1     -34.303  -6.954  19.625  0.00  0.00    +0.030 A 
ATOM      6  C   UNL     1     -33.898  -6.370  20.831  0.00  0.00    +0.002 A 
ATOM      7  C   UNL     1     -32.635  -6.660  21.362  0.00  0.00    +0.002 A 
ATOM      8  C   UNL     1     -31.773  -7.532  20.690  0.00  0.00    +0.030 A 
ATOM      9  C   UNL     1     -32.176  -8.115  19.484  0.00  0.00    +0.090 A 
ATOM     10  N   UNL     1     -31.353  -8.960  18.813  0.00  0.00    -0.244 NA
ATOM     11  C   UNL     1     -31.714  -9.534  17.629  0.00  0.00    +0.120 A 
ATOM     12  H   UNL     1     -32.989 -10.726  15.515  0.00  0.00    +0.148 HD
ENDROOT
BRANCH   1  14
ATOM     13  C   UNL     1     -34.829 -10.257  13.844  0.00  0.00    +0.027 C 
ATOM     14  C   UNL     1     -34.682  -9.474  15.154  0.00  0.00    +0.066 C 
ATOM     15  C   UNL     1     -34.689  -7.959  14.919  0.00  0.00    +0.027 C 
ENDBRANCH   1  14
BRANCH  11  16
ATOM     16  C   UNL     1     -30.736 -10.470  16.950  0.00  0.00    +0.289 C 
BRANCH  16  17
ATOM     17  S   UNL     1     -31.303 -12.160  17.098  0.00  0.00    +0.018 S 
ATOM     18  O   UNL     1     -30.650 -12.815  18.283  0.00  0.00    -0.168 OA
ATOM     19  O   UNL     1     -32.793 -12.194  17.295  0.00  0.00    -0.168 OA
BRANCH  17  20
ATOM     20  C   UNL     1     -30.895 -13.040  15.628  0.00  0.00    +0.090 A 
ATOM     21  C   UNL     1     -31.633 -12.823  14.456  0.00  0.00    +0.030 A 
ATOM     22  C   UNL     1     -31.302 -13.506  13.281  0.00  0.00    +0.040 A 
ATOM     23  C   UNL     1     -30.230 -14.403  13.270  0.00  0.00    +0.124 A 
ATOM     24  F   UNL     1     -29.909 -15.062  12.131  0.00  0.00    -0.205 F 
ATOM     25  C   UNL     1     -29.487 -14.617  14.436  0.00  0.00    +0.040 A 
ATOM     26  C   UNL     1     -29.816 -13.935  15.611  0.00  0.00    +0.030 A 
ENDBRANCH  17  20
ENDBRANCH  16  17
BRANCH  16  27
ATOM     27  C   UNL     1     -29.393 -10.354  17.539  0.00  0.00    +0.096 C 
ATOM     28  N   UNL     1     -28.336 -10.263  18.001  0.00  0.00    -0.194 NA
ENDBRANCH  16  27
ENDBRANCH  11  16
TORSDOF 5
ENDMDL
MODEL 8
REMARK VINA RESULT:    -4.011      2.802      5.935
REMARK INTER + INTRA:          -5.911
REMARK INTER:                  -5.143
REMARK INTRA:                  -0.768
REMARK UNBOUND:                -0.728
REMARK  Name = 
REMARK  7 active torsions:
REMARK  status: ('A' for Active; 'I' for Inactive)
REMARK    1  A    between atoms: C_1  and  C_2
REMARK    2  A    between atoms: C_2  and  C_3
REMARK    3  A    between atoms: C_2  and  N_4
REMARK    4  A    between atoms: C_14  and  C_15
REMARK    5  A    between atoms: C_15  and  C_16
REMARK    6  A    between atoms: C_15  and  S_18
REMARK    7  A    between atoms: S_18  and  C_21
REMARK                            x       y       z     vdW  Elec       q    Type
REMARK                         _______ _______ _______ _____ _____    ______ ____
ROOT
ATOM      1  N   UNL     1     -32.622 -10.807  20.488  0.00  0.00    -0.325 N 
ATOM      2  C   UNL     1     -31.338 -11.387  20.170  0.00  0.00    +0.144 A 
ATOM      3  N   UNL     1     -30.524 -11.808  21.177  0.00  0.00    -0.229 NA
ATOM      4  C   UNL     1     -29.330 -12.403  20.940  0.00  0.00    +0.091 A 
ATOM      5  C   UNL     1     -28.519 -12.825  21.999  0.00  0.00    +0.030 A 
ATOM      6  C   UNL     1     -27.294 -13.449  21.733  0.00  0.00    +0.002 A 
ATOM      7  C   UNL     1     -26.883 -13.652  20.410  0.00  0.00    +0.002 A 
ATOM      8  C   UNL     1     -27.692 -13.231  19.349  0.00  0.00    +0.030 A 
ATOM      9  C   UNL     1     -28.915 -12.605  19.614  0.00  0.00    +0.090 A 
ATOM     10  N   UNL     1     -29.712 -12.184  18.601  0.00  0.00    -0.244 NA
ATOM     11  C   UNL     1     -30.905 -11.561  18.828  0.00  0.00    +0.120 A 
ATOM     12  H   UNL     1     -33.345 -10.711  19.743  0.00  0.00    +0.148 HD
ENDROOT
BRANCH   1  14
ATOM     13  C   UNL     1     -34.523 -10.540  22.059  0.00  0.00    +0.027 C 
ATOM     14  C   UNL     1     -33.022 -10.339  21.823  0.00  0.00    +0.066 C 
ATOM     15  C   UNL     1     -32.593  -8.887  22.062  0.00  0.00    +0.027 C 
ENDBRANCH   1  14
BRANCH  11  16
ATOM     16  C   UNL     1     -31.735 -11.129  17.638  0.00  0.00    +0.289 C 
BRANCH  16  17
ATOM     17  S   UNL     1     -32.483 -12.557  16.863  0.00  0.00    +0.018 S 
ATOM     18  O   UNL     1     -32.834 -13.579  17.909  0.00  0.00    -0.168 OA
ATOM     19  O   UNL     1     -33.742 -12.158  16.144  0.00  0.00    -0.168 OA
BRANCH  17  20
ATOM     20  C   UNL     1     -31.352 -13.250  15.705  0.00  0.00    +0.090 A 
ATOM     21  C   UNL     1     -30.319 -14.085  16.152  0.00  0.00    +0.030 A 
ATOM     22  C   UNL     1     -29.428 -14.653  15.236  0.00  0.00    +0.040 A 
ATOM     23  C   UNL     1     -29.568 -14.394  13.870  0.00  0.00    +0.124 A 
ATOM     24  F   UNL     1     -28.706 -14.946  12.982  0.00  0.00    -0.205 F 
ATOM     25  C   UNL     1     -30.603 -13.568  13.419  0.00  0.00    +0.040 A 
ATOM     26  C   UNL     1     -31.495 -12.999  14.333  0.00  0.00    +0.030 A 
ENDBRANCH  17  20
ENDBRANCH  16  17
BRANCH  16  27
ATOM     27  C   UNL     1     -30.915 -10.412  16.649  0.00  0.00    +0.096 C 
ATOM     28  N   UNL     1     -30.269  -9.848  15.872  0.00  0.00    -0.194 NA
ENDBRANCH  16  27
ENDBRANCH  11  16
TORSDOF 5
ENDMDL
