MODEL 1
REMARK VINA RESULT:    -4.273      0.000      0.000
REMARK INTER + INTRA:          -7.453
REMARK INTER:                  -6.146
REMARK INTRA:                  -1.306
REMARK UNBOUND:                -1.306
REMARK  Name = 
REMARK  10 active torsions:
REMARK  status: ('A' for Active; 'I' for Inactive)
REMARK    1  A    between atoms: C_1  and  O_2
REMARK    2  A    between atoms: O_2  and  C_3
REMARK    3  A    between atoms: C_6  and  C_7
REMARK    4  A    between atoms: C_8  and  C_9
REMARK    5  A    between atoms: C_8  and  C_14
REMARK    6  A    between atoms: C_9  and  C_10
REMARK    7  A    between atoms: C_10  and  C_11
REMARK    8  A    between atoms: C_11  and  O_13
REMARK    9  A    between atoms: C_23  and  O_25
REMARK   10  A    between atoms: O_25  and  C_26
REMARK                            x       y       z     vdW  Elec       q    Type
REMARK                         _______ _______ _______ _____ _____    ______ ____
ROOT
ATOM      1  C   UNL     1     -31.148 -12.958  17.303  0.00  0.00    +0.017 C 
ATOM      2  C   UNL     1     -30.261 -12.136  17.902  0.00  0.00    -0.014 C 
ENDROOT
BRANCH   2   3
ATOM      3  C   UNL     1     -29.306 -12.676  18.905  0.00  0.00    +0.106 A 
ATOM      4  N   UNL     1     -27.968 -12.749  18.683  0.00  0.00    -0.239 NA
ATOM      5  C   UNL     1     -27.314 -13.276  19.750  0.00  0.00    +0.079 A 
ATOM      6  C   UNL     1     -25.934 -13.473  19.810  0.00  0.00    +0.029 A 
ATOM      7  C   UNL     1     -25.381 -14.028  20.977  0.00  0.00    +0.002 A 
ATOM      8  C   UNL     1     -26.209 -14.377  22.062  0.00  0.00    +0.001 A 
ATOM      9  C   UNL     1     -27.597 -14.174  21.991  0.00  0.00    +0.017 A 
ATOM     10  C   UNL     1     -28.117 -13.622  20.823  0.00  0.00    +0.040 A 
ATOM     11  S   UNL     1     -29.711 -13.266  20.448  0.00  0.00    -0.067 S 
ENDBRANCH   2   3
BRANCH   1  15
ATOM     12  C   UNL     1     -33.940 -11.747  14.281  0.00  0.00    +0.124 A 
ATOM     13  C   UNL     1     -34.272 -11.654  15.635  0.00  0.00    +0.046 A 
ATOM     14  C   UNL     1     -33.361 -12.047  16.616  0.00  0.00    +0.015 A 
ATOM     15  C   UNL     1     -32.094 -12.526  16.257  0.00  0.00    +0.017 A 
ATOM     16  C   UNL     1     -31.748 -12.645  14.900  0.00  0.00    +0.131 A 
ATOM     17  C   UNL     1     -32.675 -12.247  13.914  0.00  0.00    +0.091 A 
BRANCH  12  19
ATOM     18  C   UNL     1     -34.924 -10.046  12.733  0.00  0.00    +0.277 C 
ATOM     19  O   UNL     1     -34.891 -11.337  13.334  0.00  0.00    -0.495 OA
ENDBRANCH  12  19
BRANCH  16  20
ATOM     20  O   UNL     1     -30.479 -13.149  14.568  0.00  0.00    -0.494 OA
ATOM     21  C   UNL     1     -30.241 -14.173  13.610  0.00  0.00    +0.277 C 
ENDBRANCH  16  20
ENDBRANCH   1  15
BRANCH   2  22
ATOM     22  C   UNL     1     -30.122 -10.683  17.489  0.00  0.00    +0.049 C 
BRANCH  22  23
ATOM     23  C   UNL     1     -30.368  -9.755  18.683  0.00  0.00    +0.125 C 
BRANCH  23  24
ATOM     24  C   UNL     1     -31.767  -9.224  18.652  0.00  0.00    +0.305 C 
ATOM     25  O   UNL     1     -32.550  -9.452  19.612  0.00  0.00    -0.251 OA
BRANCH  24  26
ATOM     26  O   UNL     1     -32.186  -8.442  17.581  0.00  0.00    -0.481 OA
ATOM     27  H   UNL     1     -32.637  -7.548  17.737  0.00  0.00    +0.295 HD
ENDBRANCH  24  26
ENDBRANCH  23  24
ENDBRANCH  22  23
ENDBRANCH   2  22
TORSDOF 8
ENDMDL
MODEL 2
REMARK VINA RESULT:    -4.208      2.856      7.685
REMARK INTER + INTRA:          -7.359
REMARK INTER:                  -6.558
REMARK INTRA:                  -0.801
REMARK UNBOUND:                -1.306
REMARK  Name = 
REMARK  10 active torsions:
REMARK  status: ('A' for Active; 'I' for Inactive)
REMARK    1  A    between atoms: C_1  and  O_2
REMARK    2  A    between atoms: O_2  and  C_3
REMARK    3  A    between atoms: C_6  and  C_7
REMARK    4  A    between atoms: C_8  and  C_9
REMARK    5  A    between atoms: C_8  and  C_14
REMARK    6  A    between atoms: C_9  and  C_10
REMARK    7  A    between atoms: C_10  and  C_11
REMARK    8  A    between atoms: C_11  and  O_13
REMARK    9  A    between atoms: C_23  and  O_25
REMARK   10  A    between atoms: O_25  and  C_26
REMARK                            x       y       z     vdW  Elec       q    Type
REMARK                         _______ _______ _______ _____ _____    ______ ____
ROOT
ATOM      1  C   UNL     1     -30.372 -12.710  17.619  0.00  0.00    +0.017 C 
ATOM      2  C   UNL     1     -30.617 -11.523  17.026  0.00  0.00    -0.014 C 
ENDROOT
BRANCH   2   3
ATOM      3  C   UNL     1     -31.609 -11.434  15.923  0.00  0.00    +0.106 A 
ATOM      4  N   UNL     1     -31.544 -12.209  14.810  0.00  0.00    -0.239 NA
ATOM      5  C   UNL     1     -32.565 -11.939  13.955  0.00  0.00    +0.079 A 
ATOM      6  C   UNL     1     -32.756 -12.579  12.730  0.00  0.00    +0.029 A 
ATOM      7  C   UNL     1     -33.856 -12.205  11.938  0.00  0.00    +0.002 A 
ATOM      8  C   UNL     1     -34.745 -11.204  12.378  0.00  0.00    +0.001 A 
ATOM      9  C   UNL     1     -34.542 -10.567  13.614  0.00  0.00    +0.017 A 
ATOM     10  C   UNL     1     -33.445 -10.958  14.377  0.00  0.00    +0.040 A 
ATOM     11  S   UNL     1     -32.950 -10.388  15.874  0.00  0.00    -0.067 S 
ENDBRANCH   2   3
BRANCH   1  15
ATOM     12  C   UNL     1     -27.664 -13.276  20.897  0.00  0.00    +0.124 A 
ATOM     13  C   UNL     1     -27.182 -12.991  19.617  0.00  0.00    +0.046 A 
ATOM     14  C   UNL     1     -28.064 -12.806  18.552  0.00  0.00    +0.015 A 
ATOM     15  C   UNL     1     -29.449 -12.887  18.757  0.00  0.00    +0.017 A 
ATOM     16  C   UNL     1     -29.952 -13.191  20.034  0.00  0.00    +0.131 A 
ATOM     17  C   UNL     1     -29.053 -13.379  21.103  0.00  0.00    +0.091 A 
BRANCH  12  19
ATOM     18  C   UNL     1     -25.705 -14.436  21.934  0.00  0.00    +0.277 C 
ATOM     19  O   UNL     1     -26.733 -13.451  21.933  0.00  0.00    -0.495 OA
ENDBRANCH  12  19
BRANCH  16  20
ATOM     20  O   UNL     1     -31.344 -13.288  20.205  0.00  0.00    -0.494 OA
ATOM     21  C   UNL     1     -32.186 -12.213  20.603  0.00  0.00    +0.277 C 
ENDBRANCH  16  20
ENDBRANCH   1  15
BRANCH   2  22
ATOM     22  C   UNL     1     -29.995 -10.237  17.537  0.00  0.00    +0.049 C 
BRANCH  22  23
ATOM     23  C   UNL     1     -30.959  -9.507  18.476  0.00  0.00    +0.125 C 
BRANCH  23  24
ATOM     24  C   UNL     1     -30.237  -9.025  19.695  0.00  0.00    +0.305 C 
ATOM     25  O   UNL     1     -30.350  -7.825  20.063  0.00  0.00    -0.251 OA
BRANCH  24  26
ATOM     26  O   UNL     1     -29.477  -9.916  20.446  0.00  0.00    -0.481 OA
ATOM     27  H   UNL     1     -29.627 -10.915  20.373  0.00  0.00    +0.295 HD
ENDBRANCH  24  26
ENDBRANCH  23  24
ENDBRANCH  22  23
ENDBRANCH   2  22
TORSDOF 8
ENDMDL
MODEL 3
REMARK VINA RESULT:    -4.049      1.922      3.922
REMARK INTER + INTRA:          -7.131
REMARK INTER:                  -5.943
REMARK INTRA:                  -1.188
REMARK UNBOUND:                -1.306
REMARK  Name = 
REMARK  10 active torsions:
REMARK  status: ('A' for Active; 'I' for Inactive)
REMARK    1  A    between atoms: C_1  and  O_2
REMARK    2  A    between atoms: O_2  and  C_3
REMARK    3  A    between atoms: C_6  and  C_7
REMARK    4  A    between atoms: C_8  and  C_9
REMARK    5  A    between atoms: C_8  and  C_14
REMARK    6  A    between atoms: C_9  and  C_10
REMARK    7  A    between atoms: C_10  and  C_11
REMARK    8  A    between atoms: C_11  and  O_13
REMARK    9  A    between atoms: C_23  and  O_25
REMARK   10  A    between atoms: O_25  and  C_26
REMARK                            x       y       z     vdW  Elec       q    Type
REMARK                         _______ _______ _______ _____ _____    ______ ____
ROOT
ATOM      1  C   UNL     1     -30.743 -10.910  18.521  0.00  0.00    +0.017 C 
ATOM      2  C   UNL     1     -30.503 -12.238  18.549  0.00  0.00    -0.014 C 
ENDROOT
BRANCH   2   3
ATOM      3  C   UNL     1     -29.387 -12.775  19.371  0.00  0.00    +0.106 A 
ATOM      4  N   UNL     1     -28.087 -12.696  18.988  0.00  0.00    -0.239 NA
ATOM      5  C   UNL     1     -27.261 -13.255  19.911  0.00  0.00    +0.079 A 
ATOM      6  C   UNL     1     -25.873 -13.322  19.788  0.00  0.00    +0.029 A 
ATOM      7  C   UNL     1     -25.133 -13.929  20.818  0.00  0.00    +0.002 A 
ATOM      8  C   UNL     1     -25.785 -14.457  21.950  0.00  0.00    +0.001 A 
ATOM      9  C   UNL     1     -27.184 -14.383  22.062  0.00  0.00    +0.017 A 
ATOM     10  C   UNL     1     -27.891 -13.777  21.028  0.00  0.00    +0.040 A 
ATOM     11  S   UNL     1     -29.544 -13.544  20.880  0.00  0.00    -0.067 S 
ENDBRANCH   2   3
BRANCH   1  15
ATOM     12  C   UNL     1     -33.951  -9.061  16.356  0.00  0.00    +0.124 A 
ATOM     13  C   UNL     1     -32.781  -9.450  15.700  0.00  0.00    +0.046 A 
ATOM     14  C   UNL     1     -31.739 -10.053  16.405  0.00  0.00    +0.015 A 
ATOM     15  C   UNL     1     -31.859 -10.291  17.781  0.00  0.00    +0.017 A 
ATOM     16  C   UNL     1     -33.021  -9.891  18.463  0.00  0.00    +0.131 A 
ATOM     17  C   UNL     1     -34.069  -9.280  17.743  0.00  0.00    +0.091 A 
BRANCH  12  19
ATOM     18  C   UNL     1     -34.848  -7.206  14.939  0.00  0.00    +0.277 C 
ATOM     19  O   UNL     1     -34.969  -8.461  15.600  0.00  0.00    -0.495 OA
ENDBRANCH  12  19
BRANCH  16  20
ATOM     20  O   UNL     1     -33.106 -10.122  19.846  0.00  0.00    -0.494 OA
ATOM     21  C   UNL     1     -33.921  -9.377  20.743  0.00  0.00    +0.277 C 
ENDBRANCH  16  20
ENDBRANCH   1  15
BRANCH   2  22
ATOM     22  C   UNL     1     -31.425 -13.226  17.858  0.00  0.00    +0.049 C 
BRANCH  22  23
ATOM     23  C   UNL     1     -30.632 -14.421  17.321  0.00  0.00    +0.125 C 
BRANCH  23  24
ATOM     24  C   UNL     1     -29.674 -13.979  16.261  0.00  0.00    +0.305 C 
ATOM     25  O   UNL     1     -30.095 -13.358  15.248  0.00  0.00    -0.251 OA
BRANCH  24  26
ATOM     26  O   UNL     1     -28.312 -14.217  16.416  0.00  0.00    -0.481 OA
ATOM     27  H   UNL     1     -27.959 -15.160  16.522  0.00  0.00    +0.295 HD
ENDBRANCH  24  26
ENDBRANCH  23  24
ENDBRANCH  22  23
ENDBRANCH   2  22
TORSDOF 8
ENDMDL
MODEL 4
REMARK VINA RESULT:    -3.916      3.072      5.730
REMARK INTER + INTRA:          -6.940
REMARK INTER:                  -5.751
REMARK INTRA:                  -1.188
REMARK UNBOUND:                -1.306
REMARK  Name = 
REMARK  10 active torsions:
REMARK  status: ('A' for Active; 'I' for Inactive)
REMARK    1  A    between atoms: C_1  and  O_2
REMARK    2  A    between atoms: O_2  and  C_3
REMARK    3  A    between atoms: C_6  and  C_7
REMARK    4  A    between atoms: C_8  and  C_9
REMARK    5  A    between atoms: C_8  and  C_14
REMARK    6  A    between atoms: C_9  and  C_10
REMARK    7  A    between atoms: C_10  and  C_11
REMARK    8  A    between atoms: C_11  and  O_13
REMARK    9  A    between atoms: C_23  and  O_25
REMARK   10  A    between atoms: O_25  and  C_26
REMARK                            x       y       z     vdW  Elec       q    Type
REMARK                         _______ _______ _______ _____ _____    ______ ____
ROOT
ATOM      1  C   UNL     1     -32.076 -12.340  16.745  0.00  0.00    +0.017 C 
ATOM      2  C   UNL     1     -31.618 -11.210  17.324  0.00  0.00    -0.014 C 
ENDROOT
BRANCH   2   3
ATOM      3  C   UNL     1     -32.356 -10.607  18.464  0.00  0.00    +0.106 A 
ATOM      4  N   UNL     1     -32.818  -9.330  18.450  0.00  0.00    -0.239 NA
ATOM      5  C   UNL     1     -33.459  -9.020  19.606  0.00  0.00    +0.079 A 
ATOM      6  C   UNL     1     -34.037  -7.779  19.878  0.00  0.00    +0.029 A 
ATOM      7  C   UNL     1     -34.673  -7.587  21.117  0.00  0.00    +0.002 A 
ATOM      8  C   UNL     1     -34.723  -8.631  22.062  0.00  0.00    +0.001 A 
ATOM      9  C   UNL     1     -34.138  -9.876  21.777  0.00  0.00    +0.017 A 
ATOM     10  C   UNL     1     -33.515 -10.038  20.543  0.00  0.00    +0.040 A 
ATOM     11  S   UNL     1     -32.740 -11.389  19.926  0.00  0.00    -0.067 S 
ENDBRANCH   2   3
BRANCH   1  15
ATOM     12  C   UNL     1     -30.009 -14.349  13.569  0.00  0.00    +0.124 A 
ATOM     13  C   UNL     1     -29.640 -14.555  14.900  0.00  0.00    +0.046 A 
ATOM     14  C   UNL     1     -30.315 -13.902  15.932  0.00  0.00    +0.015 A 
ATOM     15  C   UNL     1     -31.384 -13.041  15.647  0.00  0.00    +0.017 A 
ATOM     16  C   UNL     1     -31.758 -12.807  14.312  0.00  0.00    +0.131 A 
ATOM     17  C   UNL     1     -31.070 -13.469  13.276  0.00  0.00    +0.091 A 
BRANCH  12  19
ATOM     18  C   UNL     1     -27.901 -14.895  12.338  0.00  0.00    +0.277 C 
ATOM     19  O   UNL     1     -29.299 -15.032  12.569  0.00  0.00    -0.495 OA
ENDBRANCH  12  19
BRANCH  16  20
ATOM     20  O   UNL     1     -32.819 -11.922  14.055  0.00  0.00    -0.494 OA
ATOM     21  C   UNL     1     -33.854 -12.155  13.105  0.00  0.00    +0.277 C 
ENDBRANCH  16  20
ENDBRANCH   1  15
BRANCH   2  22
ATOM     22  C   UNL     1     -30.289 -10.596  16.924  0.00  0.00    +0.049 C 
BRANCH  22  23
ATOM     23  C   UNL     1     -29.454 -10.260  18.163  0.00  0.00    +0.125 C 
BRANCH  23  24
ATOM     24  C   UNL     1     -28.378 -11.280  18.360  0.00  0.00    +0.305 C 
ATOM     25  O   UNL     1     -27.166 -10.944  18.274  0.00  0.00    -0.251 OA
BRANCH  24  26
ATOM     26  O   UNL     1     -28.717 -12.590  18.681  0.00  0.00    -0.481 OA
ATOM     27  H   UNL     1     -29.515 -12.789  19.272  0.00  0.00    +0.295 HD
ENDBRANCH  24  26
ENDBRANCH  23  24
ENDBRANCH  22  23
ENDBRANCH   2  22
TORSDOF 8
ENDMDL
MODEL 5
REMARK VINA RESULT:    -3.901      1.148      2.002
REMARK INTER + INTRA:          -6.918
REMARK INTER:                  -5.781
REMARK INTRA:                  -1.137
REMARK UNBOUND:                -1.306
REMARK  Name = 
REMARK  10 active torsions:
REMARK  status: ('A' for Active; 'I' for Inactive)
REMARK    1  A    between atoms: C_1  and  O_2
REMARK    2  A    between atoms: O_2  and  C_3
REMARK    3  A    between atoms: C_6  and  C_7
REMARK    4  A    between atoms: C_8  and  C_9
REMARK    5  A    between atoms: C_8  and  C_14
REMARK    6  A    between atoms: C_9  and  C_10
REMARK    7  A    between atoms: C_10  and  C_11
REMARK    8  A    between atoms: C_11  and  O_13
REMARK    9  A    between atoms: C_23  and  O_25
REMARK   10  A    between atoms: O_25  and  C_26
REMARK                            x       y       z     vdW  Elec       q    Type
REMARK                         _______ _______ _______ _____ _____    ______ ____
ROOT
ATOM      1  C   UNL     1     -31.345 -12.970  17.125  0.00  0.00    +0.017 C 
ATOM      2  C   UNL     1     -30.489 -12.120  17.729  0.00  0.00    -0.014 C 
ENDROOT
BRANCH   2   3
ATOM      3  C   UNL     1     -29.557 -12.620  18.773  0.00  0.00    +0.106 A 
ATOM      4  N   UNL     1     -28.221 -12.751  18.566  0.00  0.00    -0.239 NA
ATOM      5  C   UNL     1     -27.590 -13.223  19.672  0.00  0.00    +0.079 A 
ATOM      6  C   UNL     1     -26.217 -13.460  19.754  0.00  0.00    +0.029 A 
ATOM      7  C   UNL     1     -25.688 -13.951  20.961  0.00  0.00    +0.002 A 
ATOM      8  C   UNL     1     -26.532 -14.198  22.062  0.00  0.00    +0.001 A 
ATOM      9  C   UNL     1     -27.913 -13.955  21.967  0.00  0.00    +0.017 A 
ATOM     10  C   UNL     1     -28.409 -13.469  20.760  0.00  0.00    +0.040 A 
ATOM     11  S   UNL     1     -29.989 -13.089  20.351  0.00  0.00    -0.067 S 
ENDBRANCH   2   3
BRANCH   1  15
ATOM     12  C   UNL     1     -33.976 -11.798  13.947  0.00  0.00    +0.124 A 
ATOM     13  C   UNL     1     -32.826 -12.545  13.680  0.00  0.00    +0.046 A 
ATOM     14  C   UNL     1     -31.973 -12.927  14.715  0.00  0.00    +0.015 A 
ATOM     15  C   UNL     1     -32.266 -12.579  16.041  0.00  0.00    +0.017 A 
ATOM     16  C   UNL     1     -33.409 -11.812  16.328  0.00  0.00    +0.131 A 
ATOM     17  C   UNL     1     -34.265 -11.428  15.276  0.00  0.00    +0.091 A 
BRANCH  12  19
ATOM     18  C   UNL     1     -35.062 -10.102  12.464  0.00  0.00    +0.277 C 
ATOM     19  O   UNL     1     -34.802 -11.441  12.870  0.00  0.00    -0.495 OA
ENDBRANCH  12  19
BRANCH  16  20
ATOM     20  O   UNL     1     -33.667 -11.459  17.664  0.00  0.00    -0.494 OA
ATOM     21  C   UNL     1     -34.668 -10.536  18.078  0.00  0.00    +0.277 C 
ENDBRANCH  16  20
ENDBRANCH   1  15
BRANCH   2  22
ATOM     22  C   UNL     1     -30.358 -10.675  17.284  0.00  0.00    +0.049 C 
BRANCH  22  23
ATOM     23  C   UNL     1     -29.912  -9.788  18.449  0.00  0.00    +0.125 C 
BRANCH  23  24
ATOM     24  C   UNL     1     -31.074  -9.020  18.996  0.00  0.00    +0.305 C 
ATOM     25  O   UNL     1     -31.283  -8.988  20.238  0.00  0.00    -0.251 OA
BRANCH  24  26
ATOM     26  O   UNL     1     -31.897  -8.303  18.133  0.00  0.00    -0.481 OA
ATOM     27  H   UNL     1     -31.539  -7.512  17.611  0.00  0.00    +0.295 HD
ENDBRANCH  24  26
ENDBRANCH  23  24
ENDBRANCH  22  23
ENDBRANCH   2  22
TORSDOF 8
ENDMDL
MODEL 6
REMARK VINA RESULT:    -3.799      3.311      5.878
REMARK INTER + INTRA:          -6.771
REMARK INTER:                  -5.309
REMARK INTRA:                  -1.462
REMARK UNBOUND:                -1.306
REMARK  Name = 
REMARK  10 active torsions:
REMARK  status: ('A' for Active; 'I' for Inactive)
REMARK    1  A    between atoms: C_1  and  O_2
REMARK    2  A    between atoms: O_2  and  C_3
REMARK    3  A    between atoms: C_6  and  C_7
REMARK    4  A    between atoms: C_8  and  C_9
REMARK    5  A    between atoms: C_8  and  C_14
REMARK    6  A    between atoms: C_9  and  C_10
REMARK    7  A    between atoms: C_10  and  C_11
REMARK    8  A    between atoms: C_11  and  O_13
REMARK    9  A    between atoms: C_23  and  O_25
REMARK   10  A    between atoms: O_25  and  C_26
REMARK                            x       y       z     vdW  Elec       q    Type
REMARK                         _______ _______ _______ _____ _____    ______ ____
ROOT
ATOM      1  C   UNL     1     -30.845 -10.408  17.306  0.00  0.00    +0.017 C 
ATOM      2  C   UNL     1     -31.666 -10.339  18.375  0.00  0.00    -0.014 C 
ENDROOT
BRANCH   2   3
ATOM      3  C   UNL     1     -31.814  -9.060  19.117  0.00  0.00    +0.106 A 
ATOM      4  N   UNL     1     -30.797  -8.488  19.812  0.00  0.00    -0.239 NA
ATOM      5  C   UNL     1     -31.184  -7.326  20.397  0.00  0.00    +0.079 A 
ATOM      6  C   UNL     1     -30.352  -6.520  21.175  0.00  0.00    +0.029 A 
ATOM      7  C   UNL     1     -30.879  -5.339  21.726  0.00  0.00    +0.002 A 
ATOM      8  C   UNL     1     -32.222  -4.980  21.493  0.00  0.00    +0.001 A 
ATOM      9  C   UNL     1     -33.050  -5.799  20.707  0.00  0.00    +0.017 A 
ATOM     10  C   UNL     1     -32.502  -6.963  20.175  0.00  0.00    +0.040 A 
ATOM     11  S   UNL     1     -33.232  -8.124  19.212  0.00  0.00    -0.067 S 
ENDBRANCH   2   3
BRANCH   1  15
ATOM     12  C   UNL     1     -30.414 -13.931  14.898  0.00  0.00    +0.124 A 
ATOM     13  C   UNL     1     -31.244 -12.885  14.487  0.00  0.00    +0.046 A 
ATOM     14  C   UNL     1     -31.381 -11.739  15.271  0.00  0.00    +0.015 A 
ATOM     15  C   UNL     1     -30.675 -11.615  16.475  0.00  0.00    +0.017 A 
ATOM     16  C   UNL     1     -29.850 -12.665  16.915  0.00  0.00    +0.131 A 
ATOM     17  C   UNL     1     -29.718 -13.820  16.117  0.00  0.00    +0.091 A 
BRANCH  12  19
ATOM     18  C   UNL     1     -29.730 -15.055  12.771  0.00  0.00    +0.277 C 
ATOM     19  O   UNL     1     -30.310 -15.060  14.071  0.00  0.00    -0.495 OA
ENDBRANCH  12  19
BRANCH  16  20
ATOM     20  O   UNL     1     -29.171 -12.522  18.137  0.00  0.00    -0.494 OA
ATOM     21  C   UNL     1     -27.809 -12.131  18.265  0.00  0.00    +0.277 C 
ENDBRANCH  16  20
ENDBRANCH   1  15
BRANCH   2  22
ATOM     22  C   UNL     1     -32.548 -11.507  18.775  0.00  0.00    +0.049 C 
BRANCH  22  23
ATOM     23  C   UNL     1     -32.398 -11.812  20.268  0.00  0.00    +0.125 C 
BRANCH  23  24
ATOM     24  C   UNL     1     -31.153 -12.602  20.517  0.00  0.00    +0.305 C 
ATOM     25  O   UNL     1     -30.276 -12.166  21.310  0.00  0.00    -0.251 OA
BRANCH  24  26
ATOM     26  O   UNL     1     -30.986 -13.841  19.907  0.00  0.00    -0.481 OA
ATOM     27  H   UNL     1     -31.290 -13.994  18.952  0.00  0.00    +0.295 HD
ENDBRANCH  24  26
ENDBRANCH  23  24
ENDBRANCH  22  23
ENDBRANCH   2  22
TORSDOF 8
ENDMDL
MODEL 7
REMARK VINA RESULT:    -3.745      3.258      5.795
REMARK INTER + INTRA:          -6.693
REMARK INTER:                  -5.365
REMARK INTRA:                  -1.329
REMARK UNBOUND:                -1.306
REMARK  Name = 
REMARK  10 active torsions:
REMARK  status: ('A' for Active; 'I' for Inactive)
REMARK    1  A    between atoms: C_1  and  O_2
REMARK    2  A    between atoms: O_2  and  C_3
REMARK    3  A    between atoms: C_6  and  C_7
REMARK    4  A    between atoms: C_8  and  C_9
REMARK    5  A    between atoms: C_8  and  C_14
REMARK    6  A    between atoms: C_9  and  C_10
REMARK    7  A    between atoms: C_10  and  C_11
REMARK    8  A    between atoms: C_11  and  O_13
REMARK    9  A    between atoms: C_23  and  O_25
REMARK   10  A    between atoms: O_25  and  C_26
REMARK                            x       y       z     vdW  Elec       q    Type
REMARK                         _______ _______ _______ _____ _____    ______ ____
ROOT
ATOM      1  C   UNL     1     -31.110 -10.425  16.950  0.00  0.00    +0.017 C 
ATOM      2  C   UNL     1     -31.836 -10.384  18.087  0.00  0.00    -0.014 C 
ENDROOT
BRANCH   2   3
ATOM      3  C   UNL     1     -31.961  -9.111  18.843  0.00  0.00    +0.106 A 
ATOM      4  N   UNL     1     -30.980  -8.635  19.653  0.00  0.00    -0.239 NA
ATOM      5  C   UNL     1     -31.336  -7.457  20.227  0.00  0.00    +0.079 A 
ATOM      6  C   UNL     1     -30.529  -6.734  21.107  0.00  0.00    +0.029 A 
ATOM      7  C   UNL     1     -31.018  -5.525  21.632  0.00  0.00    +0.002 A 
ATOM      8  C   UNL     1     -32.297  -5.057  21.274  0.00  0.00    +0.001 A 
ATOM      9  C   UNL     1     -33.100  -5.793  20.386  0.00  0.00    +0.017 A 
ATOM     10  C   UNL     1     -32.591  -6.987  19.882  0.00  0.00    +0.040 A 
ATOM     11  S   UNL     1     -33.305  -8.068  18.819  0.00  0.00    -0.067 S 
ENDBRANCH   2   3
BRANCH   1  15
ATOM     12  C   UNL     1     -30.654 -13.900  14.478  0.00  0.00    +0.124 A 
ATOM     13  C   UNL     1     -29.951 -13.784  15.680  0.00  0.00    +0.046 A 
ATOM     14  C   UNL     1     -30.102 -12.654  16.484  0.00  0.00    +0.015 A 
ATOM     15  C   UNL     1     -30.974 -11.625  16.103  0.00  0.00    +0.017 A 
ATOM     16  C   UNL     1     -31.676 -11.714  14.888  0.00  0.00    +0.131 A 
ATOM     17  C   UNL     1     -31.516 -12.860  14.081  0.00  0.00    +0.091 A 
BRANCH  12  19
ATOM     18  C   UNL     1     -30.212 -15.062  12.308  0.00  0.00    +0.277 C 
ATOM     19  O   UNL     1     -30.467 -15.059  13.708  0.00  0.00    -0.495 OA
ENDBRANCH  12  19
BRANCH  16  20
ATOM     20  O   UNL     1     -32.527 -10.658  14.521  0.00  0.00    -0.494 OA
ATOM     21  C   UNL     1     -33.940 -10.764  14.396  0.00  0.00    +0.277 C 
ENDBRANCH  16  20
ENDBRANCH   1  15
BRANCH   2  22
ATOM     22  C   UNL     1     -32.640 -11.581  18.558  0.00  0.00    +0.049 C 
BRANCH  22  23
ATOM     23  C   UNL     1     -32.346 -11.885  20.030  0.00  0.00    +0.125 C 
BRANCH  23  24
ATOM     24  C   UNL     1     -31.071 -12.656  20.160  0.00  0.00    +0.305 C 
ATOM     25  O   UNL     1     -30.060 -12.121  20.688  0.00  0.00    -0.251 OA
BRANCH  24  26
ATOM     26  O   UNL     1     -31.018 -13.981  19.737  0.00  0.00    -0.481 OA
ATOM     27  H   UNL     1     -30.538 -14.233  18.881  0.00  0.00    +0.295 HD
ENDBRANCH  24  26
ENDBRANCH  23  24
ENDBRANCH  22  23
ENDBRANCH   2  22
TORSDOF 8
ENDMDL
MODEL 8
REMARK VINA RESULT:    -3.724      3.850      6.428
REMARK INTER + INTRA:          -6.663
REMARK INTER:                  -5.436
REMARK INTRA:                  -1.226
REMARK UNBOUND:                -1.306
REMARK  Name = 
REMARK  10 active torsions:
REMARK  status: ('A' for Active; 'I' for Inactive)
REMARK    1  A    between atoms: C_1  and  O_2
REMARK    2  A    between atoms: O_2  and  C_3
REMARK    3  A    between atoms: C_6  and  C_7
REMARK    4  A    between atoms: C_8  and  C_9
REMARK    5  A    between atoms: C_8  and  C_14
REMARK    6  A    between atoms: C_9  and  C_10
REMARK    7  A    between atoms: C_10  and  C_11
REMARK    8  A    between atoms: C_11  and  O_13
REMARK    9  A    between atoms: C_23  and  O_25
REMARK   10  A    between atoms: O_25  and  C_26
REMARK                            x       y       z     vdW  Elec       q    Type
REMARK                         _______ _______ _______ _____ _____    ______ ____
ROOT
ATOM      1  C   UNL     1     -33.223 -10.471  17.294  0.00  0.00    +0.017 C 
ATOM      2  C   UNL     1     -31.990 -10.503  16.746  0.00  0.00    -0.014 C 
ENDROOT
BRANCH   2   3
ATOM      3  C   UNL     1     -31.672 -11.496  15.688  0.00  0.00    +0.106 A 
ATOM      4  N   UNL     1     -30.744 -12.474  15.851  0.00  0.00    -0.239 NA
ATOM      5  C   UNL     1     -30.641 -13.253  14.744  0.00  0.00    +0.079 A 
ATOM      6  C   UNL     1     -29.769 -14.336  14.620  0.00  0.00    +0.029 A 
ATOM      7  C   UNL     1     -29.761 -15.062  13.416  0.00  0.00    +0.002 A 
ATOM      8  C   UNL     1     -30.619 -14.699  12.358  0.00  0.00    +0.001 A 
ATOM      9  C   UNL     1     -31.493 -13.608  12.495  0.00  0.00    +0.017 A 
ATOM     10  C   UNL     1     -31.480 -12.907  13.698  0.00  0.00    +0.040 A 
ATOM     11  S   UNL     1     -32.396 -11.579  14.151  0.00  0.00    -0.067 S 
ENDBRANCH   2   3
BRANCH   1  15
ATOM     12  C   UNL     1     -34.418  -7.568  20.216  0.00  0.00    +0.124 A 
ATOM     13  C   UNL     1     -34.599  -7.321  18.853  0.00  0.00    +0.046 A 
ATOM     14  C   UNL     1     -34.212  -8.267  17.904  0.00  0.00    +0.015 A 
ATOM     15  C   UNL     1     -33.649  -9.486  18.307  0.00  0.00    +0.017 A 
ATOM     16  C   UNL     1     -33.441  -9.745  19.673  0.00  0.00    +0.131 A 
ATOM     17  C   UNL     1     -33.834  -8.783  20.626  0.00  0.00    +0.091 A 
BRANCH  12  19
ATOM     18  C   UNL     1     -34.102  -5.390  21.406  0.00  0.00    +0.277 C 
ATOM     19  O   UNL     1     -34.827  -6.584  21.130  0.00  0.00    -0.495 OA
ENDBRANCH  12  19
BRANCH  16  20
ATOM     20  O   UNL     1     -32.855 -10.966  20.047  0.00  0.00    -0.494 OA
ATOM     21  C   UNL     1     -32.324 -11.247  21.337  0.00  0.00    +0.277 C 
ENDBRANCH  16  20
ENDBRANCH   1  15
BRANCH   2  22
ATOM     22  C   UNL     1     -30.941  -9.462  17.092  0.00  0.00    +0.049 C 
BRANCH  22  23
ATOM     23  C   UNL     1     -29.643 -10.134  17.548  0.00  0.00    +0.125 C 
BRANCH  23  24
ATOM     24  C   UNL     1     -29.530 -10.095  19.039  0.00  0.00    +0.305 C 
ATOM     25  O   UNL     1     -29.148 -11.116  19.671  0.00  0.00    -0.251 OA
BRANCH  24  26
ATOM     26  O   UNL     1     -29.804  -8.914  19.723  0.00  0.00    -0.481 OA
ATOM     27  H   UNL     1     -29.148  -8.143  19.710  0.00  0.00    +0.295 HD
ENDBRANCH  24  26
ENDBRANCH  23  24
ENDBRANCH  22  23
ENDBRANCH   2  22
TORSDOF 8
ENDMDL
