MODEL 1
REMARK VINA RESULT:    -5.609      0.000      0.000
REMARK INTER + INTRA:          -7.154
REMARK INTER:                  -6.428
REMARK INTRA:                  -0.725
REMARK UNBOUND:                -0.725
REMARK  Name = 
REMARK  3 active torsions:
REMARK  status: ('A' for Active; 'I' for Inactive)
REMARK    1  A    between atoms: C_2  and  O_3
REMARK    2  A    between atoms: C_2  and  C_4
REMARK    3  A    between atoms: C_9  and  C_10
REMARK                            x       y       z     vdW  Elec       q    Type
REMARK                         _______ _______ _______ _____ _____    ______ ____
ROOT
ATOM      1  C   UNL     1     -33.000 -12.451  13.926  0.00  0.00    +0.073 A 
ATOM      2  C   UNL     1     -33.274 -11.832  15.159  0.00  0.00    -0.007 A 
ATOM      3  C   UNL     1     -34.439 -10.962  15.522  0.00  0.00    +0.043 C 
ATOM      4  C   UNL     1     -34.136 -10.477  16.960  0.00  0.00    +0.042 C 
ATOM      5  C   UNL     1     -32.850 -11.147  17.334  0.00  0.00    -0.021 C 
ATOM      6  C   UNL     1     -32.250 -10.996  18.524  0.00  0.00    +0.015 C 
ATOM      7  C   UNL     1     -32.386 -11.920  16.196  0.00  0.00    +0.072 A 
ATOM      8  N   UNL     1     -31.216 -12.594  16.084  0.00  0.00    -0.247 NA
ATOM      9  C   UNL     1     -30.902 -13.241  14.931  0.00  0.00    +0.072 A 
ATOM     10  C   UNL     1     -29.704 -13.957  14.852  0.00  0.00    +0.028 A 
ATOM     11  C   UNL     1     -29.376 -14.653  13.687  0.00  0.00    +0.002 A 
ATOM     12  C   UNL     1     -30.248 -14.645  12.598  0.00  0.00    +0.001 A 
ATOM     13  C   UNL     1     -31.449 -13.932  12.658  0.00  0.00    +0.011 A 
ATOM     14  C   UNL     1     -31.791 -13.200  13.815  0.00  0.00    +0.015 A 
ENDROOT
BRANCH   6  15
ATOM     15  C   UNL     1     -30.988 -11.669  18.888  0.00  0.00    -0.005 A 
ATOM     16  C   UNL     1     -31.047 -12.811  19.699  0.00  0.00    +0.009 A 
ATOM     17  C   UNL     1     -29.874 -13.466  20.080  0.00  0.00    +0.002 A 
ATOM     18  C   UNL     1     -28.636 -12.993  19.643  0.00  0.00    +0.021 A 
ATOM     19  C   UNL     1     -28.561 -11.870  18.813  0.00  0.00    +0.060 A 
ATOM     20 CL   UNL     1     -26.978 -11.319  18.279  0.00  0.00    -0.082 Cl
ATOM     21  C   UNL     1     -29.739 -11.207  18.419  0.00  0.00    +0.066 A 
ATOM     22 CL   UNL     1     -29.644  -9.820  17.330  0.00  0.00    -0.081 Cl
ENDBRANCH   6  15
BRANCH   1  24
ATOM     23  O   UNL     1     -33.753 -11.363  11.947  0.00  0.00    -0.245 OA
ATOM     24  C   UNL     1     -33.940 -12.274  12.796  0.00  0.00    +0.338 C 
BRANCH  24  25
ATOM     25  O   UNL     1     -35.062 -13.090  12.688  0.00  0.00    -0.477 OA
ATOM     26  H   UNL     1     -35.235 -13.629  11.848  0.00  0.00    +0.295 HD
ENDBRANCH  24  25
ENDBRANCH   1  24
TORSDOF 3
ENDMDL
MODEL 2
REMARK VINA RESULT:    -5.480      1.415      1.752
REMARK INTER + INTRA:          -7.006
REMARK INTER:                  -6.250
REMARK INTRA:                  -0.756
REMARK UNBOUND:                -0.725
REMARK  Name = 
REMARK  3 active torsions:
REMARK  status: ('A' for Active; 'I' for Inactive)
REMARK    1  A    between atoms: C_2  and  O_3
REMARK    2  A    between atoms: C_2  and  C_4
REMARK    3  A    between atoms: C_9  and  C_10
REMARK                            x       y       z     vdW  Elec       q    Type
REMARK                         _______ _______ _______ _____ _____    ______ ____
ROOT
ATOM      1  C   UNL     1     -33.063 -12.098  13.824  0.00  0.00    +0.073 A 
ATOM      2  C   UNL     1     -33.181 -11.250  14.940  0.00  0.00    -0.007 A 
ATOM      3  C   UNL     1     -34.239 -10.227  15.222  0.00  0.00    +0.043 C 
ATOM      4  C   UNL     1     -33.777  -9.527  16.521  0.00  0.00    +0.042 C 
ATOM      5  C   UNL     1     -32.518 -10.235  16.918  0.00  0.00    -0.021 C 
ATOM      6  C   UNL     1     -31.807  -9.934  18.015  0.00  0.00    +0.015 C 
ATOM      7  C   UNL     1     -32.216 -11.235  15.910  0.00  0.00    +0.072 A 
ATOM      8  N   UNL     1     -31.115 -12.022  15.839  0.00  0.00    -0.247 NA
ATOM      9  C   UNL     1     -30.954 -12.888  14.804  0.00  0.00    +0.072 A 
ATOM     10  C   UNL     1     -29.825 -13.713  14.771  0.00  0.00    +0.028 A 
ATOM     11  C   UNL     1     -29.655 -14.629  13.732  0.00  0.00    +0.002 A 
ATOM     12  C   UNL     1     -30.615 -14.733  12.725  0.00  0.00    +0.001 A 
ATOM     13  C   UNL     1     -31.747 -13.913  12.740  0.00  0.00    +0.011 A 
ATOM     14  C   UNL     1     -31.930 -12.962  13.766  0.00  0.00    +0.015 A 
ENDROOT
BRANCH   6  15
ATOM     15  C   UNL     1     -30.574 -10.645  18.404  0.00  0.00    -0.005 A 
ATOM     16  C   UNL     1     -29.362 -10.257  17.816  0.00  0.00    +0.009 A 
ATOM     17  C   UNL     1     -28.177 -10.916  18.145  0.00  0.00    +0.002 A 
ATOM     18  C   UNL     1     -28.190 -11.959  19.073  0.00  0.00    +0.021 A 
ATOM     19  C   UNL     1     -29.387 -12.342  19.687  0.00  0.00    +0.060 A 
ATOM     20 CL   UNL     1     -29.352 -13.654  20.858  0.00  0.00    -0.082 Cl
ATOM     21  C   UNL     1     -30.586 -11.678  19.366  0.00  0.00    +0.066 A 
ATOM     22 CL   UNL     1     -32.086 -12.131  20.181  0.00  0.00    -0.081 Cl
ENDBRANCH   6  15
BRANCH   1  24
ATOM     23  O   UNL     1     -34.094 -11.075  11.938  0.00  0.00    -0.245 OA
ATOM     24  C   UNL     1     -34.082 -12.037  12.751  0.00  0.00    +0.338 C 
BRANCH  24  25
ATOM     25  O   UNL     1     -35.060 -13.023  12.661  0.00  0.00    -0.477 OA
ATOM     26  H   UNL     1     -34.810 -14.005  12.667  0.00  0.00    +0.295 HD
ENDBRANCH  24  25
ENDBRANCH   1  24
TORSDOF 3
ENDMDL
MODEL 3
REMARK VINA RESULT:    -4.892      1.771      3.870
REMARK INTER + INTRA:          -6.332
REMARK INTER:                  -5.478
REMARK INTRA:                  -0.854
REMARK UNBOUND:                -0.725
REMARK  Name = 
REMARK  3 active torsions:
REMARK  status: ('A' for Active; 'I' for Inactive)
REMARK    1  A    between atoms: C_2  and  O_3
REMARK    2  A    between atoms: C_2  and  C_4
REMARK    3  A    between atoms: C_9  and  C_10
REMARK                            x       y       z     vdW  Elec       q    Type
REMARK                         _______ _______ _______ _____ _____    ______ ____
ROOT
ATOM      1  C   UNL     1     -32.654 -12.262  14.095  0.00  0.00    +0.073 A 
ATOM      2  C   UNL     1     -31.817 -12.838  15.068  0.00  0.00    -0.007 A 
ATOM      3  C   UNL     1     -30.911 -14.023  14.929  0.00  0.00    +0.043 C 
ATOM      4  C   UNL     1     -30.349 -14.260  16.351  0.00  0.00    +0.042 C 
ATOM      5  C   UNL     1     -30.931 -13.161  17.187  0.00  0.00    -0.021 C 
ATOM      6  C   UNL     1     -30.672 -13.002  18.493  0.00  0.00    +0.015 C 
ATOM      7  C   UNL     1     -31.816 -12.368  16.353  0.00  0.00    +0.072 A 
ATOM      8  N   UNL     1     -32.612 -11.345  16.744  0.00  0.00    -0.247 NA
ATOM      9  C   UNL     1     -33.423 -10.722  15.847  0.00  0.00    +0.072 A 
ATOM     10  C   UNL     1     -34.211  -9.646  16.269  0.00  0.00    +0.028 A 
ATOM     11  C   UNL     1     -35.028  -8.975  15.358  0.00  0.00    +0.002 A 
ATOM     12  C   UNL     1     -35.056  -9.368  14.019  0.00  0.00    +0.001 A 
ATOM     13  C   UNL     1     -34.277 -10.444  13.581  0.00  0.00    +0.011 A 
ATOM     14  C   UNL     1     -33.462 -11.154  14.488  0.00  0.00    +0.015 A 
ENDROOT
BRANCH   6  15
ATOM     15  C   UNL     1     -31.240 -11.910  19.306  0.00  0.00    -0.005 A 
ATOM     16  C   UNL     1     -32.411 -12.157  20.037  0.00  0.00    +0.009 A 
ATOM     17  C   UNL     1     -32.989 -11.145  20.805  0.00  0.00    +0.002 A 
ATOM     18  C   UNL     1     -32.397  -9.883  20.859  0.00  0.00    +0.021 A 
ATOM     19  C   UNL     1     -31.215  -9.626  20.155  0.00  0.00    +0.060 A 
ATOM     20 CL   UNL     1     -30.500  -8.023  20.263  0.00  0.00    -0.082 Cl
ATOM     21  C   UNL     1     -30.622 -10.643  19.383  0.00  0.00    +0.066 A 
ATOM     22 CL   UNL     1     -29.103 -10.331  18.538  0.00  0.00    -0.081 Cl
ENDBRANCH   6  15
BRANCH   1  24
ATOM     23  O   UNL     1     -31.730 -12.667  11.938  0.00  0.00    -0.245 OA
ATOM     24  C   UNL     1     -32.693 -12.840  12.732  0.00  0.00    +0.338 C 
BRANCH  24  25
ATOM     25  O   UNL     1     -33.815 -13.544  12.305  0.00  0.00    -0.477 OA
ATOM     26  H   UNL     1     -33.893 -14.542  12.463  0.00  0.00    +0.295 HD
ENDBRANCH  24  25
ENDBRANCH   1  24
TORSDOF 3
ENDMDL
MODEL 4
REMARK VINA RESULT:    -4.077      3.994      5.972
REMARK INTER + INTRA:          -5.399
REMARK INTER:                  -4.539
REMARK INTRA:                  -0.860
REMARK UNBOUND:                -0.725
REMARK  Name = 
REMARK  3 active torsions:
REMARK  status: ('A' for Active; 'I' for Inactive)
REMARK    1  A    between atoms: C_2  and  O_3
REMARK    2  A    between atoms: C_2  and  C_4
REMARK    3  A    between atoms: C_9  and  C_10
REMARK                            x       y       z     vdW  Elec       q    Type
REMARK                         _______ _______ _______ _____ _____    ______ ____
ROOT
ATOM      1  C   UNL     1     -30.155 -12.405  18.000  0.00  0.00    +0.073 A 
ATOM      2  C   UNL     1     -29.923 -11.969  19.317  0.00  0.00    -0.007 A 
ATOM      3  C   UNL     1     -29.193 -12.681  20.415  0.00  0.00    +0.043 C 
ATOM      4  C   UNL     1     -29.368 -11.776  21.658  0.00  0.00    +0.042 C 
ATOM      5  C   UNL     1     -30.137 -10.588  21.168  0.00  0.00    -0.021 C 
ATOM      6  C   UNL     1     -30.483  -9.551  21.945  0.00  0.00    +0.015 C 
ATOM      7  C   UNL     1     -30.451 -10.790  19.764  0.00  0.00    +0.072 A 
ATOM      8  N   UNL     1     -31.217 -10.000  18.973  0.00  0.00    -0.247 NA
ATOM      9  C   UNL     1     -31.455 -10.346  17.680  0.00  0.00    +0.072 A 
ATOM     10  C   UNL     1     -32.221  -9.497  16.875  0.00  0.00    +0.028 A 
ATOM     11  C   UNL     1     -32.454  -9.820  15.538  0.00  0.00    +0.002 A 
ATOM     12  C   UNL     1     -31.916 -10.987  14.994  0.00  0.00    +0.001 A 
ATOM     13  C   UNL     1     -31.151 -11.849  15.786  0.00  0.00    +0.011 A 
ATOM     14  C   UNL     1     -30.922 -11.557  17.147  0.00  0.00    +0.015 A 
ENDROOT
BRANCH   6  15
ATOM     15  C   UNL     1     -31.230  -8.379  21.451  0.00  0.00    -0.005 A 
ATOM     16  C   UNL     1     -30.511  -7.245  21.049  0.00  0.00    +0.009 A 
ATOM     17  C   UNL     1     -31.182  -6.110  20.591  0.00  0.00    +0.002 A 
ATOM     18  C   UNL     1     -32.576  -6.103  20.521  0.00  0.00    +0.021 A 
ATOM     19  C   UNL     1     -33.308  -7.234  20.895  0.00  0.00    +0.060 A 
ATOM     20 CL   UNL     1     -35.062  -7.181  20.778  0.00  0.00    -0.082 Cl
ATOM     21  C   UNL     1     -32.639  -8.385  21.352  0.00  0.00    +0.066 A 
ATOM     22 CL   UNL     1     -33.564  -9.829  21.775  0.00  0.00    -0.081 Cl
ENDBRANCH   6  15
BRANCH   1  24
ATOM     23  O   UNL     1     -30.383 -14.738  17.582  0.00  0.00    -0.245 OA
ATOM     24  C   UNL     1     -29.637 -13.723  17.565  0.00  0.00    +0.338 C 
BRANCH  24  25
ATOM     25  O   UNL     1     -28.308 -13.856  17.175  0.00  0.00    -0.477 OA
ATOM     26  H   UNL     1     -27.556 -13.543  17.777  0.00  0.00    +0.295 HD
ENDBRANCH  24  25
ENDBRANCH   1  24
TORSDOF 3
ENDMDL
MODEL 5
REMARK VINA RESULT:    -3.941      2.841      4.962
REMARK INTER + INTRA:          -5.243
REMARK INTER:                  -4.358
REMARK INTRA:                  -0.885
REMARK UNBOUND:                -0.725
REMARK  Name = 
REMARK  3 active torsions:
REMARK  status: ('A' for Active; 'I' for Inactive)
REMARK    1  A    between atoms: C_2  and  O_3
REMARK    2  A    between atoms: C_2  and  C_4
REMARK    3  A    between atoms: C_9  and  C_10
REMARK                            x       y       z     vdW  Elec       q    Type
REMARK                         _______ _______ _______ _____ _____    ______ ____
ROOT
ATOM      1  C   UNL     1     -31.576 -12.835  16.479  0.00  0.00    +0.073 A 
ATOM      2  C   UNL     1     -31.029 -12.785  17.774  0.00  0.00    -0.007 A 
ATOM      3  C   UNL     1     -29.868 -13.558  18.322  0.00  0.00    +0.043 C 
ATOM      4  C   UNL     1     -29.813 -13.180  19.821  0.00  0.00    +0.042 C 
ATOM      5  C   UNL     1     -30.911 -12.178  20.010  0.00  0.00    -0.021 C 
ATOM      6  C   UNL     1     -31.187 -11.586  21.181  0.00  0.00    +0.015 C 
ATOM      7  C   UNL     1     -31.606 -12.014  18.745  0.00  0.00    +0.072 A 
ATOM      8  N   UNL     1     -32.718 -11.277  18.511  0.00  0.00    -0.247 NA
ATOM      9  C   UNL     1     -33.281 -11.256  17.273  0.00  0.00    +0.072 A 
ATOM     10  C   UNL     1     -34.410 -10.461  17.049  0.00  0.00    +0.028 A 
ATOM     11  C   UNL     1     -34.985 -10.402  15.779  0.00  0.00    +0.002 A 
ATOM     12  C   UNL     1     -34.432 -11.129  14.724  0.00  0.00    +0.001 A 
ATOM     13  C   UNL     1     -33.306 -11.931  14.932  0.00  0.00    +0.011 A 
ATOM     14  C   UNL     1     -32.720 -12.027  16.212  0.00  0.00    +0.015 A 
ENDROOT
BRANCH   6  15
ATOM     15  C   UNL     1     -32.262 -10.592  21.355  0.00  0.00    -0.005 A 
ATOM     16  C   UNL     1     -33.484 -11.014  21.898  0.00  0.00    +0.009 A 
ATOM     17  C   UNL     1     -34.533 -10.107  22.062  0.00  0.00    +0.002 A 
ATOM     18  C   UNL     1     -34.365  -8.770  21.698  0.00  0.00    +0.021 A 
ATOM     19  C   UNL     1     -33.144  -8.327  21.179  0.00  0.00    +0.060 A 
ATOM     20 CL   UNL     1     -32.977  -6.631  20.745  0.00  0.00    -0.082 Cl
ATOM     21  C   UNL     1     -32.080  -9.234  21.015  0.00  0.00    +0.066 A 
ATOM     22 CL   UNL     1     -30.524  -8.661  20.406  0.00  0.00    -0.081 Cl
ENDBRANCH   6  15
BRANCH   1  24
ATOM     23  O   UNL     1     -31.251 -14.967  15.472  0.00  0.00    -0.245 OA
ATOM     24  C   UNL     1     -30.978 -13.738  15.469  0.00  0.00    +0.338 C 
BRANCH  24  25
ATOM     25  O   UNL     1     -30.077 -13.238  14.534  0.00  0.00    -0.477 OA
ATOM     26  H   UNL     1     -29.158 -12.917  14.817  0.00  0.00    +0.295 HD
ENDBRANCH  24  25
ENDBRANCH   1  24
TORSDOF 3
ENDMDL
MODEL 6
REMARK VINA RESULT:    -3.883      2.978      5.252
REMARK INTER + INTRA:          -5.176
REMARK INTER:                  -5.675
REMARK INTRA:                   0.499
REMARK UNBOUND:                -0.725
REMARK  Name = 
REMARK  3 active torsions:
REMARK  status: ('A' for Active; 'I' for Inactive)
REMARK    1  A    between atoms: C_2  and  O_3
REMARK    2  A    between atoms: C_2  and  C_4
REMARK    3  A    between atoms: C_9  and  C_10
REMARK                            x       y       z     vdW  Elec       q    Type
REMARK                         _______ _______ _______ _____ _____    ______ ____
ROOT
ATOM      1  C   UNL     1     -33.303  -9.070  16.726  0.00  0.00    +0.073 A 
ATOM      2  C   UNL     1     -33.493  -9.945  15.641  0.00  0.00    -0.007 A 
ATOM      3  C   UNL     1     -34.560  -9.902  14.589  0.00  0.00    +0.043 C 
ATOM      4  C   UNL     1     -34.333 -11.178  13.744  0.00  0.00    +0.042 C 
ATOM      5  C   UNL     1     -33.122 -11.829  14.339  0.00  0.00    -0.021 C 
ATOM      6  C   UNL     1     -32.584 -12.966  13.875  0.00  0.00    +0.015 C 
ATOM      7  C   UNL     1     -32.693 -11.044  15.483  0.00  0.00    +0.072 A 
ATOM      8  N   UNL     1     -31.699 -11.340  16.354  0.00  0.00    -0.247 NA
ATOM      9  C   UNL     1     -31.442 -10.521  17.408  0.00  0.00    +0.072 A 
ATOM     10  C   UNL     1     -30.389 -10.831  18.275  0.00  0.00    +0.028 A 
ATOM     11  C   UNL     1     -30.090  -9.988  19.346  0.00  0.00    +0.002 A 
ATOM     12  C   UNL     1     -30.833  -8.825  19.553  0.00  0.00    +0.001 A 
ATOM     13  C   UNL     1     -31.892  -8.502  18.698  0.00  0.00    +0.011 A 
ATOM     14  C   UNL     1     -32.230  -9.351  17.623  0.00  0.00    +0.015 A 
ENDROOT
BRANCH   6  15
ATOM     15  C   UNL     1     -31.383 -13.593  14.460  0.00  0.00    -0.005 A 
ATOM     16  C   UNL     1     -31.390 -13.910  15.826  0.00  0.00    +0.009 A 
ATOM     17  C   UNL     1     -30.267 -14.489  16.420  0.00  0.00    +0.002 A 
ATOM     18  C   UNL     1     -29.135 -14.768  15.653  0.00  0.00    +0.021 A 
ATOM     19  C   UNL     1     -29.121 -14.481  14.284  0.00  0.00    +0.060 A 
ATOM     20 CL   UNL     1     -27.675 -14.860  13.357  0.00  0.00    -0.082 Cl
ATOM     21  C   UNL     1     -30.251 -13.903  13.676  0.00  0.00    +0.066 A 
ATOM     22 CL   UNL     1     -30.248 -13.589  11.938  0.00  0.00    -0.081 Cl
ENDBRANCH   6  15
BRANCH   1  24
ATOM     23  O   UNL     1     -34.983  -7.886  17.928  0.00  0.00    -0.245 OA
ATOM     24  C   UNL     1     -34.232  -7.933  16.917  0.00  0.00    +0.338 C 
BRANCH  24  25
ATOM     25  O   UNL     1     -34.310  -6.928  15.959  0.00  0.00    -0.477 OA
ATOM     26  H   UNL     1     -35.073  -6.261  15.965  0.00  0.00    +0.295 HD
ENDBRANCH  24  25
ENDBRANCH   1  24
TORSDOF 3
ENDMDL
MODEL 7
REMARK VINA RESULT:    -3.834      2.098      2.549
REMARK INTER + INTRA:          -5.120
REMARK INTER:                  -4.847
REMARK INTRA:                  -0.273
REMARK UNBOUND:                -0.725
REMARK  Name = 
REMARK  3 active torsions:
REMARK  status: ('A' for Active; 'I' for Inactive)
REMARK    1  A    between atoms: C_2  and  O_3
REMARK    2  A    between atoms: C_2  and  C_4
REMARK    3  A    between atoms: C_9  and  C_10
REMARK                            x       y       z     vdW  Elec       q    Type
REMARK                         _______ _______ _______ _____ _____    ______ ____
ROOT
ATOM      1  C   UNL     1     -32.491 -12.444  14.260  0.00  0.00    +0.073 A 
ATOM      2  C   UNL     1     -33.353 -11.600  14.982  0.00  0.00    -0.007 A 
ATOM      3  C   UNL     1     -34.565 -10.868  14.488  0.00  0.00    +0.043 C 
ATOM      4  C   UNL     1     -35.025 -10.009  15.690  0.00  0.00    +0.042 C 
ATOM      5  C   UNL     1     -34.078 -10.353  16.799  0.00  0.00    -0.021 C 
ATOM      6  C   UNL     1     -34.149  -9.826  18.030  0.00  0.00    +0.015 C 
ATOM      7  C   UNL     1     -33.094 -11.291  16.289  0.00  0.00    +0.072 A 
ATOM      8  N   UNL     1     -32.008 -11.774  16.939  0.00  0.00    -0.247 NA
ATOM      9  C   UNL     1     -31.150 -12.620  16.309  0.00  0.00    +0.072 A 
ATOM     10  C   UNL     1     -30.054 -13.131  17.012  0.00  0.00    +0.028 A 
ATOM     11  C   UNL     1     -29.177 -14.024  16.394  0.00  0.00    +0.002 A 
ATOM     12  C   UNL     1     -29.395 -14.419  15.073  0.00  0.00    +0.001 A 
ATOM     13  C   UNL     1     -30.484 -13.915  14.355  0.00  0.00    +0.011 A 
ATOM     14  C   UNL     1     -31.370 -12.993  14.950  0.00  0.00    +0.015 A 
ENDROOT
BRANCH   6  15
ATOM     15  C   UNL     1     -33.219 -10.179  19.119  0.00  0.00    -0.005 A 
ATOM     16  C   UNL     1     -33.185 -11.506  19.569  0.00  0.00    +0.009 A 
ATOM     17  C   UNL     1     -32.331 -11.876  20.609  0.00  0.00    +0.002 A 
ATOM     18  C   UNL     1     -31.495 -10.927  21.200  0.00  0.00    +0.021 A 
ATOM     19  C   UNL     1     -31.499  -9.604  20.747  0.00  0.00    +0.060 A 
ATOM     20 CL   UNL     1     -30.420  -8.446  21.515  0.00  0.00    -0.082 Cl
ATOM     21  C   UNL     1     -32.353  -9.223  19.694  0.00  0.00    +0.066 A 
ATOM     22 CL   UNL     1     -32.318  -7.564  19.091  0.00  0.00    -0.081 Cl
ENDBRANCH   6  15
BRANCH   1  24
ATOM     23  O   UNL     1     -32.131 -12.052  11.939  0.00  0.00    -0.245 OA
ATOM     24  C   UNL     1     -32.752 -12.698  12.824  0.00  0.00    +0.338 C 
BRANCH  24  25
ATOM     25  O   UNL     1     -33.718 -13.626  12.445  0.00  0.00    -0.477 OA
ATOM     26  H   UNL     1     -33.702 -14.045  11.522  0.00  0.00    +0.295 HD
ENDBRANCH  24  25
ENDBRANCH   1  24
TORSDOF 3
ENDMDL
MODEL 8
REMARK VINA RESULT:    -3.778      2.944      5.063
REMARK INTER + INTRA:          -5.055
REMARK INTER:                  -5.715
REMARK INTRA:                   0.660
REMARK UNBOUND:                -0.725
REMARK  Name = 
REMARK  3 active torsions:
REMARK  status: ('A' for Active; 'I' for Inactive)
REMARK    1  A    between atoms: C_2  and  O_3
REMARK    2  A    between atoms: C_2  and  C_4
REMARK    3  A    between atoms: C_9  and  C_10
REMARK                            x       y       z     vdW  Elec       q    Type
REMARK                         _______ _______ _______ _____ _____    ______ ____
ROOT
ATOM      1  C   UNL     1     -31.013 -13.355  13.772  0.00  0.00    +0.073 A 
ATOM      2  C   UNL     1     -32.192 -12.723  13.337  0.00  0.00    -0.007 A 
ATOM      3  C   UNL     1     -32.822 -12.770  11.978  0.00  0.00    +0.043 C 
ATOM      4  C   UNL     1     -34.018 -11.791  12.063  0.00  0.00    +0.042 C 
ATOM      5  C   UNL     1     -34.017 -11.298  13.478  0.00  0.00    -0.021 C 
ATOM      6  C   UNL     1     -34.918 -10.433  13.966  0.00  0.00    +0.015 C 
ATOM      7  C   UNL     1     -32.881 -11.883  14.168  0.00  0.00    +0.072 A 
ATOM      8  N   UNL     1     -32.463 -11.619  15.429  0.00  0.00    -0.247 NA
ATOM      9  C   UNL     1     -31.349 -12.220  15.925  0.00  0.00    +0.072 A 
ATOM     10  C   UNL     1     -30.957 -11.957  17.241  0.00  0.00    +0.028 A 
ATOM     11  C   UNL     1     -29.833 -12.585  17.778  0.00  0.00    +0.002 A 
ATOM     12  C   UNL     1     -29.098 -13.487  17.008  0.00  0.00    +0.001 A 
ATOM     13  C   UNL     1     -29.473 -13.759  15.688  0.00  0.00    +0.011 A 
ATOM     14  C   UNL     1     -30.592 -13.118  15.114  0.00  0.00    +0.015 A 
ENDROOT
BRANCH   6  15
ATOM     15  C   UNL     1     -34.916  -9.962  15.364  0.00  0.00    -0.005 A 
ATOM     16  C   UNL     1     -34.919 -10.914  16.393  0.00  0.00    +0.009 A 
ATOM     17  C   UNL     1     -34.935 -10.508  17.728  0.00  0.00    +0.002 A 
ATOM     18  C   UNL     1     -34.935  -9.149  18.047  0.00  0.00    +0.021 A 
ATOM     19  C   UNL     1     -34.907  -8.186  17.033  0.00  0.00    +0.060 A 
ATOM     20 CL   UNL     1     -34.897  -6.486  17.483  0.00  0.00    -0.082 Cl
ATOM     21  C   UNL     1     -34.885  -8.587  15.683  0.00  0.00    +0.066 A 
ATOM     22 CL   UNL     1     -34.799  -7.369  14.407  0.00  0.00    -0.081 Cl
ENDBRANCH   6  15
BRANCH   1  24
ATOM     23  O   UNL     1     -30.830 -15.061  12.122  0.00  0.00    -0.245 OA
ATOM     24  C   UNL     1     -30.245 -14.197  12.827  0.00  0.00    +0.338 C 
BRANCH  24  25
ATOM     25  O   UNL     1     -28.862 -14.067  12.743  0.00  0.00    -0.477 OA
ATOM     26  H   UNL     1     -28.409 -13.899  11.852  0.00  0.00    +0.295 HD
ENDBRANCH  24  25
ENDBRANCH   1  24
TORSDOF 3
ENDMDL
MODEL 9
REMARK VINA RESULT:    -2.861      1.776      4.000
REMARK INTER + INTRA:          -4.005
REMARK INTER:                  -4.237
REMARK INTRA:                   0.232
REMARK UNBOUND:                -0.725
REMARK  Name = 
REMARK  3 active torsions:
REMARK  status: ('A' for Active; 'I' for Inactive)
REMARK    1  A    between atoms: C_2  and  O_3
REMARK    2  A    between atoms: C_2  and  C_4
REMARK    3  A    between atoms: C_9  and  C_10
REMARK                            x       y       z     vdW  Elec       q    Type
REMARK                         _______ _______ _______ _____ _____    ______ ____
ROOT
ATOM      1  C   UNL     1     -32.993 -11.920  13.706  0.00  0.00    +0.073 A 
ATOM      2  C   UNL     1     -31.923 -12.795  13.961  0.00  0.00    -0.007 A 
ATOM      3  C   UNL     1     -31.454 -13.955  13.135  0.00  0.00    +0.043 C 
ATOM      4  C   UNL     1     -30.331 -14.610  13.974  0.00  0.00    +0.042 C 
ATOM      5  C   UNL     1     -30.202 -13.747  15.193  0.00  0.00    -0.021 C 
ATOM      6  C   UNL     1     -29.316 -13.971  16.174  0.00  0.00    +0.015 C 
ATOM      7  C   UNL     1     -31.204 -12.698  15.122  0.00  0.00    +0.072 A 
ATOM      8  N   UNL     1     -31.489 -11.771  16.067  0.00  0.00    -0.247 NA
ATOM      9  C   UNL     1     -32.491 -10.874  15.870  0.00  0.00    +0.072 A 
ATOM     10  C   UNL     1     -32.744  -9.905  16.847  0.00  0.00    +0.028 A 
ATOM     11  C   UNL     1     -33.748  -8.957  16.652  0.00  0.00    +0.002 A 
ATOM     12  C   UNL     1     -34.501  -8.964  15.477  0.00  0.00    +0.001 A 
ATOM     13  C   UNL     1     -34.264  -9.927  14.492  0.00  0.00    +0.011 A 
ATOM     14  C   UNL     1     -33.270 -10.912  14.676  0.00  0.00    +0.015 A 
ENDROOT
BRANCH   6  15
ATOM     15  C   UNL     1     -29.188 -13.109  17.364  0.00  0.00    -0.005 A 
ATOM     16  C   UNL     1     -28.150 -12.168  17.403  0.00  0.00    +0.009 A 
ATOM     17  C   UNL     1     -27.985 -11.346  18.519  0.00  0.00    +0.002 A 
ATOM     18  C   UNL     1     -28.863 -11.449  19.600  0.00  0.00    +0.021 A 
ATOM     19  C   UNL     1     -29.919 -12.365  19.567  0.00  0.00    +0.060 A 
ATOM     20 CL   UNL     1     -31.006 -12.450  20.947  0.00  0.00    -0.082 Cl
ATOM     21  C   UNL     1     -30.096 -13.194  18.442  0.00  0.00    +0.066 A 
ATOM     22 CL   UNL     1     -31.460 -14.314  18.383  0.00  0.00    -0.081 Cl
ENDBRANCH   6  15
BRANCH   1  24
ATOM     23  O   UNL     1     -34.366 -11.108  11.937  0.00  0.00    -0.245 OA
ATOM     24  C   UNL     1     -33.804 -12.097  12.479  0.00  0.00    +0.338 C 
BRANCH  24  25
ATOM     25  O   UNL     1     -33.984 -13.367  11.940  0.00  0.00    -0.477 OA
ATOM     26  H   UNL     1     -34.178 -14.162  12.536  0.00  0.00    +0.295 HD
ENDBRANCH  24  25
ENDBRANCH   1  24
TORSDOF 3
ENDMDL
