MODEL 1
REMARK VINA RESULT:    -4.676      0.000      0.000
REMARK INTER + INTRA:          -6.392
REMARK INTER:                  -5.770
REMARK INTRA:                  -0.622
REMARK UNBOUND:                -0.622
REMARK  Name = 
REMARK  5 active torsions:
REMARK  status: ('A' for Active; 'I' for Inactive)
REMARK    1  A    between atoms: C_1  and  C_2
REMARK    2  A    between atoms: C_5  and  C_16
REMARK    3  A    between atoms: C_7  and  N_8
REMARK    4  A    between atoms: C_9  and  C_11
REMARK    5  A    between atoms: N_18  and  C_19
REMARK                            x       y       z     vdW  Elec       q    Type
REMARK                         _______ _______ _______ _____ _____    ______ ____
ROOT
ATOM      1  C   UNL     1     -33.441  -8.707  16.654  0.00  0.00    +0.045 C 
ATOM      2  C   UNL     1     -32.331  -9.371  17.425  0.00  0.00    -0.029 A 
ATOM      3  C   UNL     1     -32.047  -8.943  18.731  0.00  0.00    +0.006 A 
ATOM      4  C   UNL     1     -31.025  -9.540  19.470  0.00  0.00    +0.013 A 
ATOM      5  C   UNL     1     -30.249 -10.569  18.911  0.00  0.00    +0.039 A 
ATOM      6  C   UNL     1     -30.535 -11.003  17.606  0.00  0.00    +0.036 A 
ATOM      7  C   UNL     1     -31.571 -10.418  16.856  0.00  0.00    +0.037 A 
ENDROOT
BRANCH   7   8
ATOM      8  N   UNL     1     -31.815 -10.849  15.505  0.00  0.00    -0.279 N 
ATOM      9  C   UNL     1     -32.734 -11.902  15.169  0.00  0.00    +0.284 C 
ATOM     10  O   UNL     1     -33.561 -12.316  16.027  0.00  0.00    -0.266 OA
ATOM     11  H   UNL     1     -31.358 -10.323  14.728  0.00  0.00    +0.155 HD
BRANCH   9  12
ATOM     12  C   UNL     1     -32.756 -12.493  13.821  0.00  0.00    +0.189 A 
ATOM     13  C   UNL     1     -31.692 -13.073  13.153  0.00  0.00    +0.054 A 
ATOM     14  C   UNL     1     -32.196 -13.484  11.938  0.00  0.00    +0.042 A 
ATOM     15  C   UNL     1     -33.531 -13.133  11.938  0.00  0.00    +0.196 A 
ATOM     16  O   UNL     1     -33.834 -12.546  13.073  0.00  0.00    -0.458 OA
ENDBRANCH   9  12
ENDBRANCH   7   8
BRANCH   5  17
ATOM     17  C   UNL     1     -29.155 -11.213  19.676  0.00  0.00    +0.248 C 
ATOM     18  O   UNL     1     -28.968 -10.871  20.876  0.00  0.00    -0.270 OA
ATOM     19  N   UNL     1     -28.304 -12.206  19.072  0.00  0.00    -0.280 N 
ATOM     20  H   UNL     1     -28.378 -12.385  18.047  0.00  0.00    +0.155 HD
BRANCH  19  21
ATOM     21  C   UNL     1     -27.296 -12.940  19.788  0.00  0.00    +0.052 A 
ATOM     22  C   UNL     1     -25.929 -12.634  19.667  0.00  0.00    +0.134 A 
ATOM     23  N   UNL     1     -25.006 -13.330  20.384  0.00  0.00    -0.261 NA
ATOM     24  C   UNL     1     -25.364 -14.328  21.234  0.00  0.00    +0.111 A 
ATOM     25  C   UNL     1     -26.712 -14.651  21.404  0.00  0.00    +0.021 A 
ATOM     26  C   UNL     1     -27.679 -13.948  20.684  0.00  0.00    +0.026 A 
ENDBRANCH  19  21
ENDBRANCH   5  17
TORSDOF 4
ENDMDL
MODEL 2
REMARK VINA RESULT:    -4.667      1.832      7.834
REMARK INTER + INTRA:          -6.380
REMARK INTER:                  -5.774
REMARK INTRA:                  -0.607
REMARK UNBOUND:                -0.622
REMARK  Name = 
REMARK  5 active torsions:
REMARK  status: ('A' for Active; 'I' for Inactive)
REMARK    1  A    between atoms: C_1  and  C_2
REMARK    2  A    between atoms: C_5  and  C_16
REMARK    3  A    between atoms: C_7  and  N_8
REMARK    4  A    between atoms: C_9  and  C_11
REMARK    5  A    between atoms: N_18  and  C_19
REMARK                            x       y       z     vdW  Elec       q    Type
REMARK                         _______ _______ _______ _____ _____    ______ ____
ROOT
ATOM      1  C   UNL     1     -30.279  -9.440  21.782  0.00  0.00    +0.045 C 
ATOM      2  C   UNL     1     -30.636  -9.727  20.348  0.00  0.00    -0.029 A 
ATOM      3  C   UNL     1     -31.518  -8.869  19.673  0.00  0.00    +0.006 A 
ATOM      4  C   UNL     1     -31.866  -9.109  18.343  0.00  0.00    +0.013 A 
ATOM      5  C   UNL     1     -31.354 -10.226  17.663  0.00  0.00    +0.039 A 
ATOM      6  C   UNL     1     -30.468 -11.083  18.335  0.00  0.00    +0.036 A 
ATOM      7  C   UNL     1     -30.099 -10.844  19.671  0.00  0.00    +0.037 A 
ENDROOT
BRANCH   7   8
ATOM      8  N   UNL     1     -29.225 -11.763  20.353  0.00  0.00    -0.279 N 
ATOM      9  C   UNL     1     -27.907 -12.090  19.880  0.00  0.00    +0.284 C 
ATOM     10  O   UNL     1     -27.362 -11.386  18.987  0.00  0.00    -0.266 OA
ATOM     11  H   UNL     1     -29.533 -12.151  21.271  0.00  0.00    +0.155 HD
BRANCH   9  12
ATOM     12  C   UNL     1     -27.156 -13.223  20.446  0.00  0.00    +0.189 A 
ATOM     13  C   UNL     1     -27.298 -13.763  21.712  0.00  0.00    +0.054 A 
ATOM     14  C   UNL     1     -26.393 -14.801  21.778  0.00  0.00    +0.042 A 
ATOM     15  C   UNL     1     -25.758 -14.833  20.553  0.00  0.00    +0.196 A 
ATOM     16  O   UNL     1     -26.234 -13.883  19.783  0.00  0.00    -0.458 OA
ENDBRANCH   9  12
ENDBRANCH   7   8
BRANCH   5  17
ATOM     17  C   UNL     1     -31.716 -10.504  16.252  0.00  0.00    +0.248 C 
ATOM     18  O   UNL     1     -31.137  -9.857  15.336  0.00  0.00    -0.270 OA
ATOM     19  N   UNL     1     -32.716 -11.485  15.915  0.00  0.00    -0.280 N 
ATOM     20  H   UNL     1     -33.283 -11.917  16.678  0.00  0.00    +0.155 HD
BRANCH  19  21
ATOM     21  C   UNL     1     -33.037 -11.873  14.569  0.00  0.00    +0.052 A 
ATOM     22  C   UNL     1     -34.149 -11.345  13.889  0.00  0.00    +0.134 A 
ATOM     23  N   UNL     1     -34.403 -11.713  12.605  0.00  0.00    -0.261 NA
ATOM     24  C   UNL     1     -33.602 -12.585  11.938  0.00  0.00    +0.111 A 
ATOM     25  C   UNL     1     -32.473 -13.115  12.564  0.00  0.00    +0.021 A 
ATOM     26  C   UNL     1     -32.187 -12.750  13.880  0.00  0.00    +0.026 A 
ENDBRANCH  19  21
ENDBRANCH   5  17
TORSDOF 4
ENDMDL
MODEL 3
REMARK VINA RESULT:    -4.597      2.548      7.770
REMARK INTER + INTRA:          -6.293
REMARK INTER:                  -6.012
REMARK INTRA:                  -0.281
REMARK UNBOUND:                -0.622
REMARK  Name = 
REMARK  5 active torsions:
REMARK  status: ('A' for Active; 'I' for Inactive)
REMARK    1  A    between atoms: C_1  and  C_2
REMARK    2  A    between atoms: C_5  and  C_16
REMARK    3  A    between atoms: C_7  and  N_8
REMARK    4  A    between atoms: C_9  and  C_11
REMARK    5  A    between atoms: N_18  and  C_19
REMARK                            x       y       z     vdW  Elec       q    Type
REMARK                         _______ _______ _______ _____ _____    ______ ____
ROOT
ATOM      1  C   UNL     1     -29.349 -14.904  15.425  0.00  0.00    +0.045 C 
ATOM      2  C   UNL     1     -30.002 -13.617  15.854  0.00  0.00    -0.029 A 
ATOM      3  C   UNL     1     -31.001 -13.049  15.049  0.00  0.00    +0.006 A 
ATOM      4  C   UNL     1     -31.624 -11.857  15.421  0.00  0.00    +0.013 A 
ATOM      5  C   UNL     1     -31.247 -11.194  16.600  0.00  0.00    +0.039 A 
ATOM      6  C   UNL     1     -30.250 -11.763  17.410  0.00  0.00    +0.036 A 
ATOM      7  C   UNL     1     -29.625 -12.970  17.052  0.00  0.00    +0.037 A 
ENDROOT
BRANCH   7   8
ATOM      8  N   UNL     1     -28.574 -13.509  17.876  0.00  0.00    -0.279 N 
ATOM      9  C   UNL     1     -28.591 -13.445  19.312  0.00  0.00    +0.284 C 
ATOM     10  O   UNL     1     -29.654 -13.144  19.920  0.00  0.00    -0.266 OA
ATOM     11  H   UNL     1     -27.803 -14.036  17.412  0.00  0.00    +0.155 HD
BRANCH   9  12
ATOM     12  C   UNL     1     -27.389 -13.760  20.101  0.00  0.00    +0.189 A 
ATOM     13  C   UNL     1     -27.350 -14.340  21.357  0.00  0.00    +0.054 A 
ATOM     14  C   UNL     1     -26.013 -14.441  21.679  0.00  0.00    +0.042 A 
ATOM     15  C   UNL     1     -25.320 -13.921  20.605  0.00  0.00    +0.196 A 
ATOM     16  O   UNL     1     -26.167 -13.525  19.682  0.00  0.00    -0.458 OA
ENDBRANCH   9  12
ENDBRANCH   7   8
BRANCH   5  17
ATOM     17  C   UNL     1     -31.892  -9.924  17.011  0.00  0.00    +0.248 C 
ATOM     18  O   UNL     1     -32.276  -9.119  16.118  0.00  0.00    -0.270 OA
ATOM     19  N   UNL     1     -32.074  -9.593  18.402  0.00  0.00    -0.280 N 
ATOM     20  H   UNL     1     -31.635 -10.197  19.131  0.00  0.00    +0.155 HD
BRANCH  19  21
ATOM     21  C   UNL     1     -32.782  -8.430  18.863  0.00  0.00    +0.052 A 
ATOM     22  C   UNL     1     -34.179  -8.318  18.751  0.00  0.00    +0.134 A 
ATOM     23  N   UNL     1     -34.817  -7.216  19.226  0.00  0.00    -0.261 NA
ATOM     24  C   UNL     1     -34.142  -6.199  19.823  0.00  0.00    +0.111 A 
ATOM     25  C   UNL     1     -32.756  -6.277  19.978  0.00  0.00    +0.021 A 
ATOM     26  C   UNL     1     -32.079  -7.401  19.503  0.00  0.00    +0.026 A 
ENDBRANCH  19  21
ENDBRANCH   5  17
TORSDOF 4
ENDMDL
MODEL 4
REMARK VINA RESULT:    -4.089      2.848      8.036
REMARK INTER + INTRA:          -5.667
REMARK INTER:                  -5.064
REMARK INTRA:                  -0.603
REMARK UNBOUND:                -0.622
REMARK  Name = 
REMARK  5 active torsions:
REMARK  status: ('A' for Active; 'I' for Inactive)
REMARK    1  A    between atoms: C_1  and  C_2
REMARK    2  A    between atoms: C_5  and  C_16
REMARK    3  A    between atoms: C_7  and  N_8
REMARK    4  A    between atoms: C_9  and  C_11
REMARK    5  A    between atoms: N_18  and  C_19
REMARK                            x       y       z     vdW  Elec       q    Type
REMARK                         _______ _______ _______ _____ _____    ______ ____
ROOT
ATOM      1  C   UNL     1     -29.207 -11.480  21.851  0.00  0.00    +0.045 C 
ATOM      2  C   UNL     1     -29.813 -11.815  20.514  0.00  0.00    -0.029 A 
ATOM      3  C   UNL     1     -29.980 -13.161  20.150  0.00  0.00    +0.006 A 
ATOM      4  C   UNL     1     -30.539 -13.502  18.918  0.00  0.00    +0.013 A 
ATOM      5  C   UNL     1     -30.927 -12.502  18.011  0.00  0.00    +0.039 A 
ATOM      6  C   UNL     1     -30.766 -11.155  18.375  0.00  0.00    +0.036 A 
ATOM      7  C   UNL     1     -30.216 -10.799  19.619  0.00  0.00    +0.037 A 
ENDROOT
BRANCH   7   8
ATOM      8  N   UNL     1     -30.019  -9.412  19.950  0.00  0.00    -0.279 N 
ATOM      9  C   UNL     1     -31.064  -8.571  20.467  0.00  0.00    +0.284 C 
ATOM     10  O   UNL     1     -32.132  -9.083  20.898  0.00  0.00    -0.266 OA
ATOM     11  H   UNL     1     -29.055  -9.019  19.880  0.00  0.00    +0.155 HD
BRANCH   9  12
ATOM     12  C   UNL     1     -30.900  -7.110  20.537  0.00  0.00    +0.189 A 
ATOM     13  C   UNL     1     -31.870  -6.154  20.288  0.00  0.00    +0.054 A 
ATOM     14  C   UNL     1     -31.252  -4.938  20.486  0.00  0.00    +0.042 A 
ATOM     15  C   UNL     1     -29.950  -5.223  20.844  0.00  0.00    +0.196 A 
ATOM     16  O   UNL     1     -29.773  -6.524  20.867  0.00  0.00    -0.458 OA
ENDBRANCH   9  12
ENDBRANCH   7   8
BRANCH   5  17
ATOM     17  C   UNL     1     -31.518 -12.842  16.694  0.00  0.00    +0.248 C 
ATOM     18  O   UNL     1     -31.669 -14.057  16.390  0.00  0.00    -0.270 OA
ATOM     19  N   UNL     1     -31.909 -11.815  15.763  0.00  0.00    -0.280 N 
ATOM     20  H   UNL     1     -31.659 -10.822  15.964  0.00  0.00    +0.155 HD
BRANCH  19  21
ATOM     21  C   UNL     1     -32.580 -12.075  14.518  0.00  0.00    +0.052 A 
ATOM     22  C   UNL     1     -33.912 -11.684  14.297  0.00  0.00    +0.134 A 
ATOM     23  N   UNL     1     -34.504 -11.921  13.096  0.00  0.00    -0.261 NA
ATOM     24  C   UNL     1     -33.839 -12.527  12.077  0.00  0.00    +0.111 A 
ATOM     25  C   UNL     1     -32.507 -12.911  12.243  0.00  0.00    +0.021 A 
ATOM     26  C   UNL     1     -31.876 -12.675  13.465  0.00  0.00    +0.026 A 
ENDBRANCH  19  21
ENDBRANCH   5  17
TORSDOF 4
ENDMDL
MODEL 5
REMARK VINA RESULT:    -3.922      1.985      2.429
REMARK INTER + INTRA:          -5.461
REMARK INTER:                  -4.858
REMARK INTRA:                  -0.603
REMARK UNBOUND:                -0.622
REMARK  Name = 
REMARK  5 active torsions:
REMARK  status: ('A' for Active; 'I' for Inactive)
REMARK    1  A    between atoms: C_1  and  C_2
REMARK    2  A    between atoms: C_5  and  C_16
REMARK    3  A    between atoms: C_7  and  N_8
REMARK    4  A    between atoms: C_9  and  C_11
REMARK    5  A    between atoms: N_18  and  C_19
REMARK                            x       y       z     vdW  Elec       q    Type
REMARK                         _______ _______ _______ _____ _____    ______ ____
ROOT
ATOM      1  C   UNL     1     -33.568  -7.453  18.718  0.00  0.00    +0.045 C 
ATOM      2  C   UNL     1     -32.508  -8.384  19.243  0.00  0.00    -0.029 A 
ATOM      3  C   UNL     1     -31.713  -7.982  20.327  0.00  0.00    +0.006 A 
ATOM      4  C   UNL     1     -30.722  -8.824  20.836  0.00  0.00    +0.013 A 
ATOM      5  C   UNL     1     -30.491 -10.082  20.257  0.00  0.00    +0.039 A 
ATOM      6  C   UNL     1     -31.288 -10.489  19.174  0.00  0.00    +0.036 A 
ATOM      7  C   UNL     1     -32.298  -9.655  18.662  0.00  0.00    +0.037 A 
ENDROOT
BRANCH   7   8
ATOM      8  N   UNL     1     -33.072 -10.076  17.523  0.00  0.00    -0.279 N 
ATOM      9  C   UNL     1     -32.623  -9.920  16.167  0.00  0.00    +0.284 C 
ATOM     10  O   UNL     1     -31.416  -9.644  15.928  0.00  0.00    -0.266 OA
ATOM     11  H   UNL     1     -33.967 -10.585  17.694  0.00  0.00    +0.155 HD
BRANCH   9  12
ATOM     12  C   UNL     1     -33.543 -10.112  15.034  0.00  0.00    +0.189 A 
ATOM     13  C   UNL     1     -33.679 -11.250  14.259  0.00  0.00    +0.054 A 
ATOM     14  C   UNL     1     -34.660 -10.957  13.336  0.00  0.00    +0.042 A 
ATOM     15  C   UNL     1     -35.062  -9.664  13.602  0.00  0.00    +0.196 A 
ATOM     16  O   UNL     1     -34.380  -9.189  14.619  0.00  0.00    -0.458 OA
ENDBRANCH   9  12
ENDBRANCH   7   8
BRANCH   5  17
ATOM     17  C   UNL     1     -29.440 -10.989  20.777  0.00  0.00    +0.248 C 
ATOM     18  O   UNL     1     -29.043 -10.843  21.966  0.00  0.00    -0.270 OA
ATOM     19  N   UNL     1     -28.864 -12.019  19.949  0.00  0.00    -0.280 N 
ATOM     20  H   UNL     1     -29.099 -12.046  18.933  0.00  0.00    +0.155 HD
BRANCH  19  21
ATOM     21  C   UNL     1     -27.920 -12.993  20.424  0.00  0.00    +0.052 A 
ATOM     22  C   UNL     1     -28.306 -14.054  21.262  0.00  0.00    +0.134 A 
ATOM     23  N   UNL     1     -27.390 -14.974  21.666  0.00  0.00    -0.261 NA
ATOM     24  C   UNL     1     -26.089 -14.910  21.276  0.00  0.00    +0.111 A 
ATOM     25  C   UNL     1     -25.666 -13.888  20.425  0.00  0.00    +0.021 A 
ATOM     26  C   UNL     1     -26.588 -12.934  19.991  0.00  0.00    +0.026 A 
ENDBRANCH  19  21
ENDBRANCH   5  17
TORSDOF 4
ENDMDL
MODEL 6
REMARK VINA RESULT:    -3.671      2.728      5.327
REMARK INTER + INTRA:          -5.151
REMARK INTER:                  -4.480
REMARK INTRA:                  -0.672
REMARK UNBOUND:                -0.622
REMARK  Name = 
REMARK  5 active torsions:
REMARK  status: ('A' for Active; 'I' for Inactive)
REMARK    1  A    between atoms: C_1  and  C_2
REMARK    2  A    between atoms: C_5  and  C_16
REMARK    3  A    between atoms: C_7  and  N_8
REMARK    4  A    between atoms: C_9  and  C_11
REMARK    5  A    between atoms: N_18  and  C_19
REMARK                            x       y       z     vdW  Elec       q    Type
REMARK                         _______ _______ _______ _____ _____    ______ ____
ROOT
ATOM      1  C   UNL     1     -33.572  -9.324  15.690  0.00  0.00    +0.045 C 
ATOM      2  C   UNL     1     -32.488 -10.166  16.308  0.00  0.00    -0.029 A 
ATOM      3  C   UNL     1     -31.621 -10.892  15.476  0.00  0.00    +0.006 A 
ATOM      4  C   UNL     1     -30.606 -11.681  16.019  0.00  0.00    +0.013 A 
ATOM      5  C   UNL     1     -30.447 -11.778  17.411  0.00  0.00    +0.039 A 
ATOM      6  C   UNL     1     -31.311 -11.049  18.246  0.00  0.00    +0.036 A 
ATOM      7  C   UNL     1     -32.328 -10.240  17.709  0.00  0.00    +0.037 A 
ENDROOT
BRANCH   7   8
ATOM      8  N   UNL     1     -33.228  -9.538  18.587  0.00  0.00    -0.279 N 
ATOM      9  C   UNL     1     -32.869  -8.331  19.280  0.00  0.00    +0.284 C 
ATOM     10  O   UNL     1     -31.834  -7.693  18.944  0.00  0.00    -0.266 OA
ATOM     11  H   UNL     1     -34.211  -9.881  18.665  0.00  0.00    +0.155 HD
BRANCH   9  12
ATOM     12  C   UNL     1     -33.710  -7.797  20.364  0.00  0.00    +0.189 A 
ATOM     13  C   UNL     1     -33.973  -6.464  20.630  0.00  0.00    +0.054 A 
ATOM     14  C   UNL     1     -34.808  -6.462  21.727  0.00  0.00    +0.042 A 
ATOM     15  C   UNL     1     -35.004  -7.786  22.062  0.00  0.00    +0.196 A 
ATOM     16  O   UNL     1     -34.339  -8.556  21.231  0.00  0.00    -0.458 OA
ENDBRANCH   9  12
ENDBRANCH   7   8
BRANCH   5  17
ATOM     17  C   UNL     1     -29.381 -12.615  18.010  0.00  0.00    +0.248 C 
ATOM     18  O   UNL     1     -28.930 -13.591  17.350  0.00  0.00    -0.270 OA
ATOM     19  N   UNL     1     -28.863 -12.339  19.326  0.00  0.00    -0.280 N 
ATOM     20  H   UNL     1     -29.331 -11.617  19.917  0.00  0.00    +0.155 HD
BRANCH  19  21
ATOM     21  C   UNL     1     -27.761 -13.047  19.919  0.00  0.00    +0.052 A 
ATOM     22  C   UNL     1     -26.433 -12.825  19.514  0.00  0.00    +0.134 A 
ATOM     23  N   UNL     1     -25.413 -13.492  20.119  0.00  0.00    -0.261 NA
ATOM     24  C   UNL     1     -25.635 -14.378  21.126  0.00  0.00    +0.111 A 
ATOM     25  C   UNL     1     -26.935 -14.612  21.576  0.00  0.00    +0.021 A 
ATOM     26  C   UNL     1     -27.998 -13.936  20.976  0.00  0.00    +0.026 A 
ENDBRANCH  19  21
ENDBRANCH   5  17
TORSDOF 4
ENDMDL
MODEL 7
REMARK VINA RESULT:    -3.522      2.817      5.813
REMARK INTER + INTRA:          -4.967
REMARK INTER:                  -4.507
REMARK INTRA:                  -0.460
REMARK UNBOUND:                -0.622
REMARK  Name = 
REMARK  5 active torsions:
REMARK  status: ('A' for Active; 'I' for Inactive)
REMARK    1  A    between atoms: C_1  and  C_2
REMARK    2  A    between atoms: C_5  and  C_16
REMARK    3  A    between atoms: C_7  and  N_8
REMARK    4  A    between atoms: C_9  and  C_11
REMARK    5  A    between atoms: N_18  and  C_19
REMARK                            x       y       z     vdW  Elec       q    Type
REMARK                         _______ _______ _______ _____ _____    ______ ____
ROOT
ATOM      1  C   UNL     1     -28.967 -13.460  16.871  0.00  0.00    +0.045 C 
ATOM      2  C   UNL     1     -29.504 -12.233  17.558  0.00  0.00    -0.029 A 
ATOM      3  C   UNL     1     -29.148 -11.978  18.891  0.00  0.00    +0.006 A 
ATOM      4  C   UNL     1     -29.630 -10.848  19.554  0.00  0.00    +0.013 A 
ATOM      5  C   UNL     1     -30.498  -9.956  18.903  0.00  0.00    +0.039 A 
ATOM      6  C   UNL     1     -30.852 -10.207  17.567  0.00  0.00    +0.036 A 
ATOM      7  C   UNL     1     -30.362 -11.335  16.885  0.00  0.00    +0.037 A 
ENDROOT
BRANCH   7   8
ATOM      8  N   UNL     1     -30.776 -11.594  15.530  0.00  0.00    -0.279 N 
ATOM      9  C   UNL     1     -32.137 -11.875  15.164  0.00  0.00    +0.284 C 
ATOM     10  O   UNL     1     -33.071 -11.650  15.981  0.00  0.00    -0.266 OA
ATOM     11  H   UNL     1     -30.067 -11.499  14.770  0.00  0.00    +0.155 HD
BRANCH   9  12
ATOM     12  C   UNL     1     -32.474 -12.395  13.829  0.00  0.00    +0.189 A 
ATOM     13  C   UNL     1     -31.789 -13.367  13.120  0.00  0.00    +0.054 A 
ATOM     14  C   UNL     1     -32.481 -13.521  11.938  0.00  0.00    +0.042 A 
ATOM     15  C   UNL     1     -33.542 -12.641  11.997  0.00  0.00    +0.196 A 
ATOM     16  O   UNL     1     -33.511 -11.987  13.135  0.00  0.00    -0.458 OA
ENDBRANCH   9  12
ENDBRANCH   7   8
BRANCH   5  17
ATOM     17  C   UNL     1     -31.027  -8.754  19.590  0.00  0.00    +0.248 C 
ATOM     18  O   UNL     1     -30.213  -7.944  20.113  0.00  0.00    -0.270 OA
ATOM     19  N   UNL     1     -32.443  -8.504  19.676  0.00  0.00    -0.280 N 
ATOM     20  H   UNL     1     -33.111  -9.241  19.360  0.00  0.00    +0.155 HD
BRANCH  19  21
ATOM     21  C   UNL     1     -33.014  -7.309  20.235  0.00  0.00    +0.052 A 
ATOM     22  C   UNL     1     -32.786  -6.042  19.669  0.00  0.00    +0.134 A 
ATOM     23  N   UNL     1     -33.367  -4.938  20.209  0.00  0.00    -0.261 NA
ATOM     24  C   UNL     1     -34.183  -5.015  21.293  0.00  0.00    +0.111 A 
ATOM     25  C   UNL     1     -34.456  -6.254  21.874  0.00  0.00    +0.021 A 
ATOM     26  C   UNL     1     -33.876  -7.404  21.336  0.00  0.00    +0.026 A 
ENDBRANCH  19  21
ENDBRANCH   5  17
TORSDOF 4
ENDMDL
MODEL 8
REMARK VINA RESULT:    -3.516      4.588      5.923
REMARK INTER + INTRA:          -4.960
REMARK INTER:                  -4.634
REMARK INTRA:                  -0.325
REMARK UNBOUND:                -0.622
REMARK  Name = 
REMARK  5 active torsions:
REMARK  status: ('A' for Active; 'I' for Inactive)
REMARK    1  A    between atoms: C_1  and  C_2
REMARK    2  A    between atoms: C_5  and  C_16
REMARK    3  A    between atoms: C_7  and  N_8
REMARK    4  A    between atoms: C_9  and  C_11
REMARK    5  A    between atoms: N_18  and  C_19
REMARK                            x       y       z     vdW  Elec       q    Type
REMARK                         _______ _______ _______ _____ _____    ______ ____
ROOT
ATOM      1  C   UNL     1     -34.452 -11.389  12.800  0.00  0.00    +0.045 C 
ATOM      2  C   UNL     1     -34.233 -10.775  14.156  0.00  0.00    -0.029 A 
ATOM      3  C   UNL     1     -34.969  -9.637  14.525  0.00  0.00    +0.006 A 
ATOM      4  C   UNL     1     -34.788  -9.047  15.777  0.00  0.00    +0.013 A 
ATOM      5  C   UNL     1     -33.850  -9.569  16.682  0.00  0.00    +0.039 A 
ATOM      6  C   UNL     1     -33.115 -10.709  16.317  0.00  0.00    +0.036 A 
ATOM      7  C   UNL     1     -33.299 -11.322  15.064  0.00  0.00    +0.037 A 
ENDROOT
BRANCH   7   8
ATOM      8  N   UNL     1     -32.502 -12.463  14.696  0.00  0.00    -0.279 N 
ATOM      9  C   UNL     1     -31.083 -12.533  14.913  0.00  0.00    +0.284 C 
ATOM     10  O   UNL     1     -30.517 -11.701  15.673  0.00  0.00    -0.266 OA
ATOM     11  H   UNL     1     -32.989 -13.307  14.323  0.00  0.00    +0.155 HD
BRANCH   9  12
ATOM     12  C   UNL     1     -30.269 -13.588  14.286  0.00  0.00    +0.189 A 
ATOM     13  C   UNL     1     -30.432 -14.118  13.018  0.00  0.00    +0.054 A 
ATOM     14  C   UNL     1     -29.437 -15.062  12.880  0.00  0.00    +0.042 A 
ATOM     15  C   UNL     1     -28.729 -15.050  14.064  0.00  0.00    +0.196 A 
ATOM     16  O   UNL     1     -29.248 -14.161  14.880  0.00  0.00    -0.458 OA
ENDBRANCH   9  12
ENDBRANCH   7   8
BRANCH   5  17
ATOM     17  C   UNL     1     -33.636  -8.953  18.013  0.00  0.00    +0.248 C 
ATOM     18  O   UNL     1     -34.199  -9.467  19.019  0.00  0.00    -0.270 OA
ATOM     19  N   UNL     1     -32.811  -7.783  18.173  0.00  0.00    -0.280 N 
ATOM     20  H   UNL     1     -32.461  -7.287  17.324  0.00  0.00    +0.155 HD
BRANCH  19  21
ATOM     21  C   UNL     1     -32.482  -7.201  19.446  0.00  0.00    +0.052 A 
ATOM     22  C   UNL     1     -33.288  -6.215  20.042  0.00  0.00    +0.134 A 
ATOM     23  N   UNL     1     -32.961  -5.711  21.262  0.00  0.00    -0.261 NA
ATOM     24  C   UNL     1     -31.865  -6.137  21.943  0.00  0.00    +0.111 A 
ATOM     25  C   UNL     1     -31.049  -7.132  21.401  0.00  0.00    +0.021 A 
ATOM     26  C   UNL     1     -31.366  -7.670  20.153  0.00  0.00    +0.026 A 
ENDBRANCH  19  21
ENDBRANCH   5  17
TORSDOF 4
ENDMDL
