MODEL 1
REMARK VINA RESULT:    -4.974      0.000      0.000
REMARK INTER + INTRA:          -6.764
REMARK INTER:                  -5.846
REMARK INTRA:                  -0.918
REMARK UNBOUND:                -0.918
REMARK  Name = 
REMARK  3 active torsions:
REMARK  status: ('A' for Active; 'I' for Inactive)
REMARK    1  A    between atoms: C_4  and  S_10
REMARK    2  A    between atoms: S_10  and  C_11
REMARK    3  A    between atoms: C_14  and  C_16
REMARK                            x       y       z     vdW  Elec       q    Type
REMARK                         _______ _______ _______ _____ _____    ______ ____
ROOT
ATOM      1  C   UNL     1     -30.845 -13.422  18.446  0.00  0.00    +0.195 A 
ATOM      2  N   UNL     1     -32.099 -13.333  17.970  0.00  0.00    -0.122 NA
ATOM      3  N   UNL     1     -32.030 -13.598  16.674  0.00  0.00    -0.128 NA
ATOM      4  C   UNL     1     -30.735 -13.844  16.385  0.00  0.00    +0.162 A 
ATOM      5  N   UNL     1     -29.962 -13.739  17.485  0.00  0.00    -0.316 N 
ATOM      6  H   UNL     1     -28.933 -13.872  17.592  0.00  0.00    +0.169 HD
ENDROOT
BRANCH   4   7
ATOM      7  C   UNL     1     -30.248 -14.187  15.027  0.00  0.00    +0.022 A 
ATOM      8  C   UNL     1     -28.975 -14.751  14.825  0.00  0.00    +0.031 A 
ATOM      9  C   UNL     1     -28.553 -15.062  13.529  0.00  0.00    +0.111 A 
ATOM     10  N   UNL     1     -29.368 -14.822  12.469  0.00  0.00    -0.263 NA
ATOM     11  C   UNL     1     -30.603 -14.278  12.631  0.00  0.00    +0.111 A 
ATOM     12  C   UNL     1     -31.065 -13.953  13.908  0.00  0.00    +0.031 A 
ENDBRANCH   4   7
BRANCH   1  13
ATOM     13  S   UNL     1     -30.409 -13.165  20.161  0.00  0.00    -0.030 S 
BRANCH  13  17
ATOM     14  C   UNL     1     -26.183 -14.580  21.496  0.00  0.00    +0.085 A 
ATOM     15  C   UNL     1     -27.550 -14.374  21.317  0.00  0.00    +0.031 A 
ATOM     16  C   UNL     1     -27.638 -13.386  20.359  0.00  0.00    +0.051 A 
ATOM     17  C   UNL     1     -28.715 -12.755  19.749  0.00  0.00    +0.117 A 
ATOM     18  N   UNL     1     -28.446 -11.802  18.809  0.00  0.00    -0.228 NA
ATOM     19  C   UNL     1     -27.157 -11.475  18.472  0.00  0.00    +0.224 A 
ATOM     20  N   UNL     1     -26.103 -12.103  19.073  0.00  0.00    -0.218 NA
ATOM     21  C   UNL     1     -26.367 -13.049  20.007  0.00  0.00    +0.142 A 
ATOM     22  N   UNL     1     -25.462 -13.765  20.690  0.00  0.00    -0.346 N 
ATOM     23  H   UNL     1     -24.421 -13.709  20.616  0.00  0.00    +0.167 HD
ENDBRANCH  13  17
ENDBRANCH   1  13
TORSDOF 3
ENDMDL
MODEL 2
REMARK VINA RESULT:    -4.647      3.197      4.069
REMARK INTER + INTRA:          -6.381
REMARK INTER:                  -5.789
REMARK INTRA:                  -0.592
REMARK UNBOUND:                -0.918
REMARK  Name = 
REMARK  3 active torsions:
REMARK  status: ('A' for Active; 'I' for Inactive)
REMARK    1  A    between atoms: C_4  and  S_10
REMARK    2  A    between atoms: S_10  and  C_11
REMARK    3  A    between atoms: C_14  and  C_16
REMARK                            x       y       z     vdW  Elec       q    Type
REMARK                         _______ _______ _______ _____ _____    ______ ____
ROOT
ATOM      1  C   UNL     1     -28.711 -10.748  18.026  0.00  0.00    +0.195 A 
ATOM      2  N   UNL     1     -29.225  -9.733  18.742  0.00  0.00    -0.122 NA
ATOM      3  N   UNL     1     -30.391  -9.434  18.190  0.00  0.00    -0.128 NA
ATOM      4  C   UNL     1     -30.567 -10.275  17.149  0.00  0.00    +0.162 A 
ATOM      5  N   UNL     1     -29.521 -11.116  17.019  0.00  0.00    -0.316 N 
ATOM      6  H   UNL     1     -29.358 -11.876  16.325  0.00  0.00    +0.169 HD
ENDROOT
BRANCH   4   7
ATOM      7  C   UNL     1     -31.765 -10.259  16.275  0.00  0.00    +0.022 A 
ATOM      8  C   UNL     1     -31.899 -11.155  15.198  0.00  0.00    +0.031 A 
ATOM      9  C   UNL     1     -33.045 -11.109  14.399  0.00  0.00    +0.111 A 
ATOM     10  N   UNL     1     -34.025 -10.206  14.660  0.00  0.00    -0.263 NA
ATOM     11  C   UNL     1     -33.925  -9.328  15.692  0.00  0.00    +0.111 A 
ATOM     12  C   UNL     1     -32.798  -9.338  16.517  0.00  0.00    +0.031 A 
ENDBRANCH   4   7
BRANCH   1  13
ATOM     13  S   UNL     1     -27.143 -11.529  18.386  0.00  0.00    -0.030 S 
BRANCH  13  17
ATOM     14  C   UNL     1     -25.586 -14.653  21.461  0.00  0.00    +0.085 A 
ATOM     15  C   UNL     1     -25.739 -13.705  20.451  0.00  0.00    +0.031 A 
ATOM     16  C   UNL     1     -27.089 -13.422  20.431  0.00  0.00    +0.051 A 
ATOM     17  C   UNL     1     -27.861 -12.560  19.662  0.00  0.00    +0.117 A 
ATOM     18  N   UNL     1     -29.203 -12.513  19.912  0.00  0.00    -0.228 NA
ATOM     19  C   UNL     1     -29.775 -13.288  20.888  0.00  0.00    +0.224 A 
ATOM     20  N   UNL     1     -29.008 -14.131  21.642  0.00  0.00    -0.218 NA
ATOM     21  C   UNL     1     -27.676 -14.180  21.396  0.00  0.00    +0.142 A 
ATOM     22  N   UNL     1     -26.777 -14.941  22.038  0.00  0.00    -0.346 N 
ATOM     23  H   UNL     1     -26.955 -15.611  22.819  0.00  0.00    +0.167 HD
ENDBRANCH  13  17
ENDBRANCH   1  13
TORSDOF 3
ENDMDL
MODEL 3
REMARK VINA RESULT:    -4.491      2.931      3.660
REMARK INTER + INTRA:          -6.197
REMARK INTER:                  -5.530
REMARK INTRA:                  -0.667
REMARK UNBOUND:                -0.918
REMARK  Name = 
REMARK  3 active torsions:
REMARK  status: ('A' for Active; 'I' for Inactive)
REMARK    1  A    between atoms: C_4  and  S_10
REMARK    2  A    between atoms: S_10  and  C_11
REMARK    3  A    between atoms: C_14  and  C_16
REMARK                            x       y       z     vdW  Elec       q    Type
REMARK                         _______ _______ _______ _____ _____    ______ ____
ROOT
ATOM      1  C   UNL     1     -30.498 -10.279  16.616  0.00  0.00    +0.195 A 
ATOM      2  N   UNL     1     -31.474  -9.358  16.542  0.00  0.00    -0.122 NA
ATOM      3  N   UNL     1     -32.316  -9.773  15.608  0.00  0.00    -0.128 NA
ATOM      4  C   UNL     1     -31.838 -10.941  15.131  0.00  0.00    +0.162 A 
ATOM      5  N   UNL     1     -30.689 -11.286  15.748  0.00  0.00    -0.316 N 
ATOM      6  H   UNL     1     -30.084 -12.124  15.610  0.00  0.00    +0.169 HD
ENDROOT
BRANCH   4   7
ATOM      7  C   UNL     1     -32.508 -11.729  14.068  0.00  0.00    +0.022 A 
ATOM      8  C   UNL     1     -31.806 -12.686  13.312  0.00  0.00    +0.031 A 
ATOM      9  C   UNL     1     -32.474 -13.409  12.319  0.00  0.00    +0.111 A 
ATOM     10  N   UNL     1     -33.794 -13.190  12.086  0.00  0.00    -0.263 NA
ATOM     11  C   UNL     1     -34.499 -12.274  12.799  0.00  0.00    +0.111 A 
ATOM     12  C   UNL     1     -33.872 -11.529  13.801  0.00  0.00    +0.031 A 
ENDBRANCH   4   7
BRANCH   1  13
ATOM     13  S   UNL     1     -29.119 -10.183  17.750  0.00  0.00    -0.030 S 
BRANCH  13  17
ATOM     14  C   UNL     1     -27.422 -13.632  20.371  0.00  0.00    +0.085 A 
ATOM     15  C   UNL     1     -27.615 -12.547  19.517  0.00  0.00    +0.031 A 
ATOM     16  C   UNL     1     -28.983 -12.376  19.466  0.00  0.00    +0.051 A 
ATOM     17  C   UNL     1     -29.796 -11.465  18.802  0.00  0.00    +0.117 A 
ATOM     18  N   UNL     1     -31.146 -11.570  18.979  0.00  0.00    -0.228 NA
ATOM     19  C   UNL     1     -31.687 -12.538  19.786  0.00  0.00    +0.224 A 
ATOM     20  N   UNL     1     -30.881 -13.428  20.438  0.00  0.00    -0.218 NA
ATOM     21  C   UNL     1     -29.540 -13.327  20.263  0.00  0.00    +0.142 A 
ATOM     22  N   UNL     1     -28.606 -14.107  20.826  0.00  0.00    -0.346 N 
ATOM     23  H   UNL     1     -28.756 -14.909  21.478  0.00  0.00    +0.167 HD
ENDBRANCH  13  17
ENDBRANCH   1  13
TORSDOF 3
ENDMDL
MODEL 4
REMARK VINA RESULT:    -4.449      2.011      7.042
REMARK INTER + INTRA:          -6.147
REMARK INTER:                  -5.280
REMARK INTRA:                  -0.867
REMARK UNBOUND:                -0.918
REMARK  Name = 
REMARK  3 active torsions:
REMARK  status: ('A' for Active; 'I' for Inactive)
REMARK    1  A    between atoms: C_4  and  S_10
REMARK    2  A    between atoms: S_10  and  C_11
REMARK    3  A    between atoms: C_14  and  C_16
REMARK                            x       y       z     vdW  Elec       q    Type
REMARK                         _______ _______ _______ _____ _____    ______ ____
ROOT
ATOM      1  C   UNL     1     -28.964 -10.968  17.941  0.00  0.00    +0.195 A 
ATOM      2  N   UNL     1     -27.714 -10.560  17.664  0.00  0.00    -0.122 NA
ATOM      3  N   UNL     1     -26.906 -11.264  18.442  0.00  0.00    -0.128 NA
ATOM      4  C   UNL     1     -27.680 -12.089  19.178  0.00  0.00    +0.162 A 
ATOM      5  N   UNL     1     -28.986 -11.924  18.884  0.00  0.00    -0.316 N 
ATOM      6  H   UNL     1     -29.823 -12.409  19.272  0.00  0.00    +0.169 HD
ENDROOT
BRANCH   4   7
ATOM      7  C   UNL     1     -27.142 -13.048  20.174  0.00  0.00    +0.022 A 
ATOM      8  C   UNL     1     -27.971 -13.641  21.143  0.00  0.00    +0.031 A 
ATOM      9  C   UNL     1     -27.426 -14.542  22.062  0.00  0.00    +0.111 A 
ATOM     10  N   UNL     1     -26.102 -14.844  22.021  0.00  0.00    -0.263 NA
ATOM     11  C   UNL     1     -25.275 -14.288  21.097  0.00  0.00    +0.111 A 
ATOM     12  C   UNL     1     -25.778 -13.384  20.158  0.00  0.00    +0.031 A 
ENDBRANCH   4   7
BRANCH   1  13
ATOM     13  S   UNL     1     -30.425 -10.326  17.134  0.00  0.00    -0.030 S 
BRANCH  13  17
ATOM     14  C   UNL     1     -33.199 -11.728  13.672  0.00  0.00    +0.085 A 
ATOM     15  C   UNL     1     -32.539 -11.031  14.682  0.00  0.00    +0.031 A 
ATOM     16  C   UNL     1     -31.610 -11.921  15.179  0.00  0.00    +0.051 A 
ATOM     17  C   UNL     1     -30.651 -11.825  16.180  0.00  0.00    +0.117 A 
ATOM     18  N   UNL     1     -29.868 -12.918  16.418  0.00  0.00    -0.228 NA
ATOM     19  C   UNL     1     -30.017 -14.075  15.696  0.00  0.00    +0.224 A 
ATOM     20  N   UNL     1     -30.960 -14.161  14.712  0.00  0.00    -0.218 NA
ATOM     21  C   UNL     1     -31.740 -13.078  14.473  0.00  0.00    +0.142 A 
ATOM     22  N   UNL     1     -32.706 -12.982  13.547  0.00  0.00    -0.346 N 
ATOM     23  H   UNL     1     -33.012 -13.718  12.871  0.00  0.00    +0.167 HD
ENDBRANCH  13  17
ENDBRANCH   1  13
TORSDOF 3
ENDMDL
MODEL 5
REMARK VINA RESULT:    -4.338      4.327      5.418
REMARK INTER + INTRA:          -6.017
REMARK INTER:                  -5.185
REMARK INTRA:                  -0.832
REMARK UNBOUND:                -0.918
REMARK  Name = 
REMARK  3 active torsions:
REMARK  status: ('A' for Active; 'I' for Inactive)
REMARK    1  A    between atoms: C_4  and  S_10
REMARK    2  A    between atoms: S_10  and  C_11
REMARK    3  A    between atoms: C_14  and  C_16
REMARK                            x       y       z     vdW  Elec       q    Type
REMARK                         _______ _______ _______ _____ _____    ______ ____
ROOT
ATOM      1  C   UNL     1     -34.115  -9.852  16.933  0.00  0.00    +0.195 A 
ATOM      2  N   UNL     1     -34.864 -10.915  17.275  0.00  0.00    -0.122 NA
ATOM      3  N   UNL     1     -34.689 -11.821  16.325  0.00  0.00    -0.128 NA
ATOM      4  C   UNL     1     -33.835 -11.292  15.422  0.00  0.00    +0.162 A 
ATOM      5  N   UNL     1     -33.456 -10.049  15.779  0.00  0.00    -0.316 N 
ATOM      6  H   UNL     1     -32.809  -9.385  15.301  0.00  0.00    +0.169 HD
ENDROOT
BRANCH   4   7
ATOM      7  C   UNL     1     -33.382 -12.008  14.204  0.00  0.00    +0.022 A 
ATOM      8  C   UNL     1     -34.213 -12.133  13.076  0.00  0.00    +0.031 A 
ATOM      9  C   UNL     1     -33.749 -12.813  11.947  0.00  0.00    +0.111 A 
ATOM     10  N   UNL     1     -32.502 -13.351  11.938  0.00  0.00    -0.263 NA
ATOM     11  C   UNL     1     -31.675 -13.247  13.011  0.00  0.00    +0.111 A 
ATOM     12  C   UNL     1     -32.098 -12.575  14.160  0.00  0.00    +0.031 A 
ENDBRANCH   4   7
BRANCH   1  13
ATOM     13  S   UNL     1     -33.997  -8.359  17.911  0.00  0.00    -0.030 S 
BRANCH  13  17
ATOM     14  C   UNL     1     -31.199  -7.055  21.391  0.00  0.00    +0.085 A 
ATOM     15  C   UNL     1     -32.242  -7.230  20.483  0.00  0.00    +0.031 A 
ATOM     16  C   UNL     1     -31.775  -8.164  19.582  0.00  0.00    +0.051 A 
ATOM     17  C   UNL     1     -32.340  -8.759  18.461  0.00  0.00    +0.117 A 
ATOM     18  N   UNL     1     -31.590  -9.674  17.780  0.00  0.00    -0.228 NA
ATOM     19  C   UNL     1     -30.321 -10.001  18.186  0.00  0.00    +0.224 A 
ATOM     20  N   UNL     1     -29.774  -9.415  19.291  0.00  0.00    -0.218 NA
ATOM     21  C   UNL     1     -30.515  -8.504  19.969  0.00  0.00    +0.142 A 
ATOM     22  N   UNL     1     -30.142  -7.839  21.071  0.00  0.00    -0.346 N 
ATOM     23  H   UNL     1     -29.232  -7.910  21.579  0.00  0.00    +0.167 HD
ENDBRANCH  13  17
ENDBRANCH   1  13
TORSDOF 3
ENDMDL
MODEL 6
REMARK VINA RESULT:    -4.233      1.541      6.793
REMARK INTER + INTRA:          -5.894
REMARK INTER:                  -5.064
REMARK INTRA:                  -0.830
REMARK UNBOUND:                -0.918
REMARK  Name = 
REMARK  3 active torsions:
REMARK  status: ('A' for Active; 'I' for Inactive)
REMARK    1  A    between atoms: C_4  and  S_10
REMARK    2  A    between atoms: S_10  and  C_11
REMARK    3  A    between atoms: C_14  and  C_16
REMARK                            x       y       z     vdW  Elec       q    Type
REMARK                         _______ _______ _______ _____ _____    ______ ____
ROOT
ATOM      1  C   UNL     1     -30.573 -13.026  18.188  0.00  0.00    +0.195 A 
ATOM      2  N   UNL     1     -30.243 -11.739  18.390  0.00  0.00    -0.122 NA
ATOM      3  N   UNL     1     -29.141 -11.743  19.125  0.00  0.00    -0.128 NA
ATOM      4  C   UNL     1     -28.820 -13.034  19.355  0.00  0.00    +0.162 A 
ATOM      5  N   UNL     1     -29.708 -13.867  18.777  0.00  0.00    -0.316 N 
ATOM      6  H   UNL     1     -29.736 -14.910  18.766  0.00  0.00    +0.169 HD
ENDROOT
BRANCH   4   7
ATOM      7  C   UNL     1     -27.637 -13.457  20.143  0.00  0.00    +0.022 A 
ATOM      8  C   UNL     1     -26.331 -13.127  19.740  0.00  0.00    +0.031 A 
ATOM      9  C   UNL     1     -25.242 -13.543  20.511  0.00  0.00    +0.111 A 
ATOM     10  N   UNL     1     -25.443 -14.263  21.645  0.00  0.00    -0.263 NA
ATOM     11  C   UNL     1     -26.692 -14.598  22.062  0.00  0.00    +0.111 A 
ATOM     12  C   UNL     1     -27.809 -14.202  21.322  0.00  0.00    +0.031 A 
ENDBRANCH   4   7
BRANCH   1  13
ATOM     13  S   UNL     1     -31.989 -13.553  17.231  0.00  0.00    -0.030 S 
BRANCH  13  17
ATOM     14  C   UNL     1     -32.119 -12.854  12.633  0.00  0.00    +0.085 A 
ATOM     15  C   UNL     1     -32.360 -12.897  14.005  0.00  0.00    +0.031 A 
ATOM     16  C   UNL     1     -31.307 -13.616  14.529  0.00  0.00    +0.051 A 
ATOM     17  C   UNL     1     -30.971 -13.992  15.824  0.00  0.00    +0.117 A 
ATOM     18  N   UNL     1     -29.825 -14.713  16.001  0.00  0.00    -0.228 NA
ATOM     19  C   UNL     1     -29.025 -15.054  14.940  0.00  0.00    +0.224 A 
ATOM     20  N   UNL     1     -29.360 -14.678  13.670  0.00  0.00    -0.218 NA
ATOM     21  C   UNL     1     -30.499 -13.964  13.491  0.00  0.00    +0.142 A 
ATOM     22  N   UNL     1     -30.975 -13.510  12.323  0.00  0.00    -0.346 N 
ATOM     23  H   UNL     1     -30.555 -13.632  11.374  0.00  0.00    +0.167 HD
ENDBRANCH  13  17
ENDBRANCH   1  13
TORSDOF 3
ENDMDL
MODEL 7
REMARK VINA RESULT:    -4.185      2.656      7.337
REMARK INTER + INTRA:          -5.837
REMARK INTER:                  -4.976
REMARK INTRA:                  -0.861
REMARK UNBOUND:                -0.918
REMARK  Name = 
REMARK  3 active torsions:
REMARK  status: ('A' for Active; 'I' for Inactive)
REMARK    1  A    between atoms: C_4  and  S_10
REMARK    2  A    between atoms: S_10  and  C_11
REMARK    3  A    between atoms: C_14  and  C_16
REMARK                            x       y       z     vdW  Elec       q    Type
REMARK                         _______ _______ _______ _____ _____    ______ ____
ROOT
ATOM      1  C   UNL     1     -30.880 -10.464  16.731  0.00  0.00    +0.195 A 
ATOM      2  N   UNL     1     -29.833  -9.623  16.676  0.00  0.00    -0.122 NA
ATOM      3  N   UNL     1     -28.982 -10.018  17.611  0.00  0.00    -0.128 NA
ATOM      4  C   UNL     1     -29.527 -11.093  18.218  0.00  0.00    +0.162 A 
ATOM      5  N   UNL     1     -30.727 -11.398  17.684  0.00  0.00    -0.316 N 
ATOM      6  H   UNL     1     -31.390 -12.166  17.926  0.00  0.00    +0.169 HD
ENDROOT
BRANCH   4   7
ATOM      7  C   UNL     1     -28.871 -11.831  19.325  0.00  0.00    +0.022 A 
ATOM      8  C   UNL     1     -27.738 -12.634  19.101  0.00  0.00    +0.031 A 
ATOM      9  C   UNL     1     -27.148 -13.312  20.171  0.00  0.00    +0.111 A 
ATOM     10  N   UNL     1     -27.665 -13.197  21.422  0.00  0.00    -0.263 NA
ATOM     11  C   UNL     1     -28.759 -12.430  21.670  0.00  0.00    +0.111 A 
ATOM     12  C   UNL     1     -29.380 -11.734  20.631  0.00  0.00    +0.031 A 
ENDBRANCH   4   7
BRANCH   1  13
ATOM     13  S   UNL     1     -32.300 -10.360  15.649  0.00  0.00    -0.030 S 
BRANCH  13  17
ATOM     14  C   UNL     1     -33.866 -12.704  11.948  0.00  0.00    +0.085 A 
ATOM     15  C   UNL     1     -33.656 -11.812  12.999  0.00  0.00    +0.031 A 
ATOM     16  C   UNL     1     -32.527 -12.278  13.639  0.00  0.00    +0.051 A 
ATOM     17  C   UNL     1     -31.812 -11.825  14.741  0.00  0.00    +0.117 A 
ATOM     18  N   UNL     1     -30.707 -12.533  15.118  0.00  0.00    -0.228 NA
ATOM     19  C   UNL     1     -30.309 -13.653  14.434  0.00  0.00    +0.224 A 
ATOM     20  N   UNL     1     -31.016 -14.090  13.350  0.00  0.00    -0.218 NA
ATOM     21  C   UNL     1     -32.114 -13.391  12.974  0.00  0.00    +0.142 A 
ATOM     22  N   UNL     1     -32.918 -13.670  11.938  0.00  0.00    -0.346 N 
ATOM     23  H   UNL     1     -32.831 -14.463  11.263  0.00  0.00    +0.167 HD
ENDBRANCH  13  17
ENDBRANCH   1  13
TORSDOF 3
ENDMDL
MODEL 8
REMARK VINA RESULT:    -4.122      2.397      3.016
REMARK INTER + INTRA:          -5.763
REMARK INTER:                  -4.955
REMARK INTRA:                  -0.808
REMARK UNBOUND:                -0.918
REMARK  Name = 
REMARK  3 active torsions:
REMARK  status: ('A' for Active; 'I' for Inactive)
REMARK    1  A    between atoms: C_4  and  S_10
REMARK    2  A    between atoms: S_10  and  C_11
REMARK    3  A    between atoms: C_14  and  C_16
REMARK                            x       y       z     vdW  Elec       q    Type
REMARK                         _______ _______ _______ _____ _____    ______ ____
ROOT
ATOM      1  C   UNL     1     -31.218 -10.005  17.139  0.00  0.00    +0.195 A 
ATOM      2  N   UNL     1     -32.134  -9.349  16.406  0.00  0.00    -0.122 NA
ATOM      3  N   UNL     1     -32.336 -10.075  15.317  0.00  0.00    -0.128 NA
ATOM      4  C   UNL     1     -31.540 -11.161  15.408  0.00  0.00    +0.162 A 
ATOM      5  N   UNL     1     -30.821 -11.144  16.548  0.00  0.00    -0.316 N 
ATOM      6  H   UNL     1     -30.127 -11.833  16.910  0.00  0.00    +0.169 HD
ENDROOT
BRANCH   4   7
ATOM      7  C   UNL     1     -31.483 -12.226  14.377  0.00  0.00    +0.022 A 
ATOM      8  C   UNL     1     -32.302 -12.184  13.234  0.00  0.00    +0.031 A 
ATOM      9  C   UNL     1     -32.217 -13.206  12.284  0.00  0.00    +0.111 A 
ATOM     10  N   UNL     1     -31.348 -14.235  12.463  0.00  0.00    -0.263 NA
ATOM     11  C   UNL     1     -30.544 -14.304  13.556  0.00  0.00    +0.111 A 
ATOM     12  C   UNL     1     -30.595 -13.304  14.530  0.00  0.00    +0.031 A 
ENDBRANCH   4   7
BRANCH   1  13
ATOM     13  S   UNL     1     -30.615  -9.436  18.723  0.00  0.00    -0.030 S 
BRANCH  13  17
ATOM     14  C   UNL     1     -29.955 -13.564  20.765  0.00  0.00    +0.085 A 
ATOM     15  C   UNL     1     -30.436 -12.335  20.315  0.00  0.00    +0.031 A 
ATOM     16  C   UNL     1     -29.438 -11.839  19.504  0.00  0.00    +0.051 A 
ATOM     17  C   UNL     1     -29.318 -10.671  18.760  0.00  0.00    +0.117 A 
ATOM     18  N   UNL     1     -28.172 -10.487  18.042  0.00  0.00    -0.228 NA
ATOM     19  C   UNL     1     -27.168 -11.422  18.049  0.00  0.00    +0.224 A 
ATOM     20  N   UNL     1     -27.294 -12.569  18.780  0.00  0.00    -0.218 NA
ATOM     21  C   UNL     1     -28.430 -12.754  19.495  0.00  0.00    +0.142 A 
ATOM     22  N   UNL     1     -28.724 -13.815  20.259  0.00  0.00    -0.346 N 
ATOM     23  H   UNL     1     -28.133 -14.660  20.428  0.00  0.00    +0.167 HD
ENDBRANCH  13  17
ENDBRANCH   1  13
TORSDOF 3
ENDMDL
MODEL 9
REMARK VINA RESULT:    -3.647      2.973      6.789
REMARK INTER + INTRA:          -5.204
REMARK INTER:                  -4.418
REMARK INTRA:                  -0.786
REMARK UNBOUND:                -0.918
REMARK  Name = 
REMARK  3 active torsions:
REMARK  status: ('A' for Active; 'I' for Inactive)
REMARK    1  A    between atoms: C_4  and  S_10
REMARK    2  A    between atoms: S_10  and  C_11
REMARK    3  A    between atoms: C_14  and  C_16
REMARK                            x       y       z     vdW  Elec       q    Type
REMARK                         _______ _______ _______ _____ _____    ______ ____
ROOT
ATOM      1  C   UNL     1     -30.758 -13.537  18.923  0.00  0.00    +0.195 A 
ATOM      2  N   UNL     1     -31.068 -13.019  20.124  0.00  0.00    -0.122 NA
ATOM      3  N   UNL     1     -29.948 -13.012  20.832  0.00  0.00    -0.128 NA
ATOM      4  C   UNL     1     -28.977 -13.524  20.046  0.00  0.00    +0.162 A 
ATOM      5  N   UNL     1     -29.459 -13.866  18.835  0.00  0.00    -0.316 N 
ATOM      6  H   UNL     1     -28.967 -14.278  18.013  0.00  0.00    +0.169 HD
ENDROOT
BRANCH   4   7
ATOM      7  C   UNL     1     -27.567 -13.678  20.480  0.00  0.00    +0.022 A 
ATOM      8  C   UNL     1     -26.508 -13.110  19.749  0.00  0.00    +0.031 A 
ATOM      9  C   UNL     1     -25.193 -13.277  20.193  0.00  0.00    +0.111 A 
ATOM     10  N   UNL     1     -24.937 -13.984  21.324  0.00  0.00    -0.263 NA
ATOM     11  C   UNL     1     -25.938 -14.545  22.052  0.00  0.00    +0.111 A 
ATOM     12  C   UNL     1     -27.267 -14.403  21.647  0.00  0.00    +0.031 A 
ENDBRANCH   4   7
BRANCH   1  13
ATOM     13  S   UNL     1     -31.936 -13.744  17.593  0.00  0.00    -0.030 S 
BRANCH  13  17
ATOM     14  C   UNL     1     -34.264 -10.689  14.968  0.00  0.00    +0.085 A 
ATOM     15  C   UNL     1     -33.825 -11.794  15.695  0.00  0.00    +0.031 A 
ATOM     16  C   UNL     1     -32.590 -11.427  16.188  0.00  0.00    +0.051 A 
ATOM     17  C   UNL     1     -31.660 -12.081  16.986  0.00  0.00    +0.117 A 
ATOM     18  N   UNL     1     -30.513 -11.413  17.306  0.00  0.00    -0.228 NA
ATOM     19  C   UNL     1     -30.283 -10.137  16.859  0.00  0.00    +0.224 A 
ATOM     20  N   UNL     1     -31.204  -9.499  16.078  0.00  0.00    -0.218 NA
ATOM     21  C   UNL     1     -32.343 -10.160  15.757  0.00  0.00    +0.142 A 
ATOM     22  N   UNL     1     -33.351  -9.689  15.010  0.00  0.00    -0.346 N 
ATOM     23  H   UNL     1     -33.421  -8.750  14.557  0.00  0.00    +0.167 HD
ENDBRANCH  13  17
ENDBRANCH   1  13
TORSDOF 3
ENDMDL
