MODEL 1
REMARK VINA RESULT:    -5.941      0.000      0.000
REMARK INTER + INTRA:          -8.612
REMARK INTER:                  -7.678
REMARK INTRA:                  -0.934
REMARK UNBOUND:                -0.934
REMARK  Name = 
REMARK  6 active torsions:
REMARK  status: ('A' for Active; 'I' for Inactive)
REMARK    1  A    between atoms: C_1  and  C_2
REMARK    2  A    between atoms: C_2  and  N_3
REMARK    3  A    between atoms: C_2  and  C_14
REMARK    4  A    between atoms: N_3  and  C_4
REMARK    5  A    between atoms: N_16  and  C_17
REMARK    6  A    between atoms: C_20  and  C_23
REMARK                            x       y       z     vdW  Elec       q    Type
REMARK                         _______ _______ _______ _____ _____    ______ ____
ROOT
ATOM      1  C   UNL     1     -32.392 -12.359  17.793  0.00  0.00    +0.237 C 
ATOM      2  O   UNL     1     -32.434 -13.620  17.839  0.00  0.00    -0.273 OA
ATOM      3  N   UNL     1     -31.517 -11.642  18.678  0.00  0.00    -0.284 N 
ATOM      4  H   UNL     1     -31.790 -10.673  18.958  0.00  0.00    +0.155 HD
ENDROOT
BRANCH   3   5
ATOM      5  C   UNL     1     -30.346 -12.216  19.284  0.00  0.00    +0.033 A 
ATOM      6  C   UNL     1     -30.355 -12.669  20.615  0.00  0.00    +0.024 A 
ATOM      7  C   UNL     1     -29.210 -13.245  21.173  0.00  0.00    +0.015 A 
ATOM      8  C   UNL     1     -28.040 -13.398  20.409  0.00  0.00    +0.037 A 
ATOM      9  C   UNL     1     -28.038 -12.952  19.076  0.00  0.00    +0.015 A 
ATOM     10  C   UNL     1     -29.183 -12.377  18.518  0.00  0.00    +0.024 A 
BRANCH   8  11
ATOM     11  C   UNL     1     -26.832 -14.007  21.020  0.00  0.00    +0.242 C 
ATOM     12  N   UNL     1     -26.932 -15.062  21.980  0.00  0.00    -0.325 N 
ATOM     13  O   UNL     1     -25.690 -13.582  20.701  0.00  0.00    -0.270 OA
ATOM     14  H   UNL     1     -27.846 -15.344  22.396  0.00  0.00    +0.145 HD
ATOM     15  H   UNL     1     -26.065 -15.513  22.350  0.00  0.00    +0.145 HD
ENDBRANCH   8  11
ENDBRANCH   3   5
BRANCH   1  17
ATOM     16  C   UNL     1     -33.979 -10.389  17.583  0.00  0.00    +0.038 C 
ATOM     17  C   UNL     1     -33.353 -11.613  16.898  0.00  0.00    +0.154 C 
BRANCH  17  18
ATOM     18  N   UNL     1     -32.719 -11.238  15.624  0.00  0.00    -0.333 N 
ATOM     19  H   UNL     1     -32.109 -10.391  15.649  0.00  0.00    +0.147 HD
BRANCH  18  20
ATOM     20  C   UNL     1     -32.802 -11.992  14.392  0.00  0.00    +0.031 A 
ATOM     21  C   UNL     1     -33.898 -11.827  13.526  0.00  0.00    +0.023 A 
ATOM     22  C   UNL     1     -33.961 -12.509  12.315  0.00  0.00    +0.002 A 
ATOM     23  C   UNL     1     -32.928 -13.363  11.938  0.00  0.00    +0.004 A 
ATOM     24  C   UNL     1     -31.815 -13.544  12.768  0.00  0.00    -0.042 A 
ATOM     25  C   UNL     1     -30.755 -14.531  12.334  0.00  0.00    +0.035 C 
ATOM     26  C   UNL     1     -29.444 -14.363  13.102  0.00  0.00    +0.005 C 
ATOM     27  C   UNL     1     -29.721 -14.302  14.600  0.00  0.00    +0.005 C 
ATOM     28  C   UNL     1     -30.558 -13.066  14.937  0.00  0.00    +0.037 C 
ATOM     29  C   UNL     1     -31.757 -12.881  14.023  0.00  0.00    -0.023 A 
ENDBRANCH  18  20
ENDBRANCH  17  18
ENDBRANCH   1  17
TORSDOF 5
ENDMDL
MODEL 2
REMARK VINA RESULT:    -5.242      3.271      5.771
REMARK INTER + INTRA:          -7.708
REMARK INTER:                  -6.599
REMARK INTRA:                  -1.109
REMARK UNBOUND:                -0.934
REMARK  Name = 
REMARK  6 active torsions:
REMARK  status: ('A' for Active; 'I' for Inactive)
REMARK    1  A    between atoms: C_1  and  C_2
REMARK    2  A    between atoms: C_2  and  N_3
REMARK    3  A    between atoms: C_2  and  C_14
REMARK    4  A    between atoms: N_3  and  C_4
REMARK    5  A    between atoms: N_16  and  C_17
REMARK    6  A    between atoms: C_20  and  C_23
REMARK                            x       y       z     vdW  Elec       q    Type
REMARK                         _______ _______ _______ _____ _____    ______ ____
ROOT
ATOM      1  C   UNL     1     -29.199 -11.110  18.252  0.00  0.00    +0.237 C 
ATOM      2  O   UNL     1     -28.657 -10.147  17.640  0.00  0.00    -0.273 OA
ATOM      3  N   UNL     1     -30.158 -10.846  19.290  0.00  0.00    -0.284 N 
ATOM      4  H   UNL     1     -30.254 -11.547  20.058  0.00  0.00    +0.155 HD
ENDROOT
BRANCH   3   5
ATOM      5  C   UNL     1     -30.913  -9.626  19.390  0.00  0.00    +0.033 A 
ATOM      6  C   UNL     1     -30.577  -8.628  20.321  0.00  0.00    +0.024 A 
ATOM      7  C   UNL     1     -31.313  -7.442  20.382  0.00  0.00    +0.015 A 
ATOM      8  C   UNL     1     -32.387  -7.219  19.502  0.00  0.00    +0.037 A 
ATOM      9  C   UNL     1     -32.714  -8.215  18.566  0.00  0.00    +0.015 A 
ATOM     10  C   UNL     1     -31.977  -9.402  18.505  0.00  0.00    +0.024 A 
BRANCH   8  11
ATOM     11  C   UNL     1     -33.161  -5.955  19.585  0.00  0.00    +0.242 C 
ATOM     12  N   UNL     1     -33.374  -5.132  18.435  0.00  0.00    -0.325 N 
ATOM     13  O   UNL     1     -33.634  -5.585  20.693  0.00  0.00    -0.270 OA
ATOM     14  H   UNL     1     -32.876  -5.305  17.534  0.00  0.00    +0.145 HD
ATOM     15  H   UNL     1     -33.971  -4.279  18.510  0.00  0.00    +0.145 HD
ENDBRANCH   8  11
ENDBRANCH   3   5
BRANCH   1  17
ATOM     16  C   UNL     1     -28.194 -13.227  19.225  0.00  0.00    +0.038 C 
ATOM     17  C   UNL     1     -28.742 -12.522  17.976  0.00  0.00    +0.154 C 
BRANCH  17  18
ATOM     18  N   UNL     1     -29.807 -13.318  17.345  0.00  0.00    -0.333 N 
ATOM     19  H   UNL     1     -30.606 -13.583  17.963  0.00  0.00    +0.147 HD
BRANCH  18  20
ATOM     20  C   UNL     1     -29.874 -13.669  15.944  0.00  0.00    +0.031 A 
ATOM     21  C   UNL     1     -28.992 -14.624  15.404  0.00  0.00    +0.023 A 
ATOM     22  C   UNL     1     -29.083 -15.006  14.069  0.00  0.00    +0.002 A 
ATOM     23  C   UNL     1     -30.060 -14.452  13.247  0.00  0.00    +0.004 A 
ATOM     24  C   UNL     1     -30.962 -13.508  13.751  0.00  0.00    -0.042 A 
ATOM     25  C   UNL     1     -31.961 -12.895  12.794  0.00  0.00    +0.035 C 
ATOM     26  C   UNL     1     -33.110 -12.190  13.514  0.00  0.00    +0.005 C 
ATOM     27  C   UNL     1     -32.559 -11.257  14.587  0.00  0.00    +0.005 C 
ATOM     28  C   UNL     1     -31.826 -12.058  15.666  0.00  0.00    +0.037 C 
ATOM     29  C   UNL     1     -30.856 -13.082  15.102  0.00  0.00    -0.023 A 
ENDBRANCH  18  20
ENDBRANCH  17  18
ENDBRANCH   1  17
TORSDOF 5
ENDMDL
MODEL 3
REMARK VINA RESULT:    -4.844      1.192      2.525
REMARK INTER + INTRA:          -7.194
REMARK INTER:                  -6.569
REMARK INTRA:                  -0.625
REMARK UNBOUND:                -0.934
REMARK  Name = 
REMARK  6 active torsions:
REMARK  status: ('A' for Active; 'I' for Inactive)
REMARK    1  A    between atoms: C_1  and  C_2
REMARK    2  A    between atoms: C_2  and  N_3
REMARK    3  A    between atoms: C_2  and  C_14
REMARK    4  A    between atoms: N_3  and  C_4
REMARK    5  A    between atoms: N_16  and  C_17
REMARK    6  A    between atoms: C_20  and  C_23
REMARK                            x       y       z     vdW  Elec       q    Type
REMARK                         _______ _______ _______ _____ _____    ______ ____
ROOT
ATOM      1  C   UNL     1     -31.904 -11.610  18.610  0.00  0.00    +0.237 C 
ATOM      2  O   UNL     1     -32.195 -12.802  18.912  0.00  0.00    -0.273 OA
ATOM      3  N   UNL     1     -30.736 -10.995  19.177  0.00  0.00    -0.284 N 
ATOM      4  H   UNL     1     -30.739  -9.958  19.300  0.00  0.00    +0.155 HD
ENDROOT
BRANCH   3   5
ATOM      5  C   UNL     1     -29.609 -11.732  19.683  0.00  0.00    +0.033 A 
ATOM      6  C   UNL     1     -29.594 -12.244  20.992  0.00  0.00    +0.024 A 
ATOM      7  C   UNL     1     -28.496 -12.978  21.451  0.00  0.00    +0.015 A 
ATOM      8  C   UNL     1     -27.401 -13.231  20.608  0.00  0.00    +0.037 A 
ATOM      9  C   UNL     1     -27.424 -12.727  19.296  0.00  0.00    +0.015 A 
ATOM     10  C   UNL     1     -28.522 -11.994  18.837  0.00  0.00    +0.024 A 
BRANCH   8  11
ATOM     11  C   UNL     1     -26.242 -14.008  21.115  0.00  0.00    +0.242 C 
ATOM     12  N   UNL     1     -24.938 -13.862  20.547  0.00  0.00    -0.325 N 
ATOM     13  O   UNL     1     -26.404 -14.825  22.060  0.00  0.00    -0.270 OA
ATOM     14  H   UNL     1     -24.777 -13.323  19.667  0.00  0.00    +0.145 HD
ATOM     15  H   UNL     1     -24.129 -14.376  20.961  0.00  0.00    +0.145 HD
ENDBRANCH   8  11
ENDBRANCH   3   5
BRANCH   1  17
ATOM     16  C   UNL     1     -33.294  -9.495  18.427  0.00  0.00    +0.038 C 
ATOM     17  C   UNL     1     -32.853 -10.804  17.756  0.00  0.00    +0.154 C 
BRANCH  17  18
ATOM     18  N   UNL     1     -32.290 -10.549  16.421  0.00  0.00    -0.333 N 
ATOM     19  H   UNL     1     -32.142  -9.547  16.170  0.00  0.00    +0.147 HD
BRANCH  18  20
ATOM     20  C   UNL     1     -31.848 -11.564  15.489  0.00  0.00    +0.031 A 
ATOM     21  C   UNL     1     -30.677 -12.302  15.740  0.00  0.00    +0.023 A 
ATOM     22  C   UNL     1     -30.272 -13.315  14.875  0.00  0.00    +0.002 A 
ATOM     23  C   UNL     1     -31.031 -13.620  13.749  0.00  0.00    +0.004 A 
ATOM     24  C   UNL     1     -32.209 -12.915  13.473  0.00  0.00    -0.042 A 
ATOM     25  C   UNL     1     -32.958 -13.250  12.202  0.00  0.00    +0.035 C 
ATOM     26  C   UNL     1     -34.387 -12.707  12.201  0.00  0.00    +0.005 C 
ATOM     27  C   UNL     1     -34.387 -11.237  12.605  0.00  0.00    +0.005 C 
ATOM     28  C   UNL     1     -33.887 -11.079  14.043  0.00  0.00    +0.037 C 
ATOM     29  C   UNL     1     -32.613 -11.855  14.327  0.00  0.00    -0.023 A 
ENDBRANCH  18  20
ENDBRANCH  17  18
ENDBRANCH   1  17
TORSDOF 5
ENDMDL
MODEL 4
REMARK VINA RESULT:    -4.742      3.234      5.662
REMARK INTER + INTRA:          -7.062
REMARK INTER:                  -6.480
REMARK INTRA:                  -0.582
REMARK UNBOUND:                -0.934
REMARK  Name = 
REMARK  6 active torsions:
REMARK  status: ('A' for Active; 'I' for Inactive)
REMARK    1  A    between atoms: C_1  and  C_2
REMARK    2  A    between atoms: C_2  and  N_3
REMARK    3  A    between atoms: C_2  and  C_14
REMARK    4  A    between atoms: N_3  and  C_4
REMARK    5  A    between atoms: N_16  and  C_17
REMARK    6  A    between atoms: C_20  and  C_23
REMARK                            x       y       z     vdW  Elec       q    Type
REMARK                         _______ _______ _______ _____ _____    ______ ____
ROOT
ATOM      1  C   UNL     1     -28.629 -11.640  19.031  0.00  0.00    +0.237 C 
ATOM      2  O   UNL     1     -28.350 -10.903  18.045  0.00  0.00    -0.273 OA
ATOM      3  N   UNL     1     -29.342 -11.093  20.152  0.00  0.00    -0.284 N 
ATOM      4  H   UNL     1     -29.181 -11.522  21.091  0.00  0.00    +0.155 HD
ENDROOT
BRANCH   3   5
ATOM      5  C   UNL     1     -30.179  -9.926  20.076  0.00  0.00    +0.033 A 
ATOM      6  C   UNL     1     -30.841  -9.574  18.887  0.00  0.00    +0.024 A 
ATOM      7  C   UNL     1     -31.668  -8.448  18.845  0.00  0.00    +0.015 A 
ATOM      8  C   UNL     1     -31.865  -7.661  19.993  0.00  0.00    +0.037 A 
ATOM      9  C   UNL     1     -31.208  -8.021  21.183  0.00  0.00    +0.015 A 
ATOM     10  C   UNL     1     -30.382  -9.148  21.224  0.00  0.00    +0.024 A 
BRANCH   8  11
ATOM     11  C   UNL     1     -32.742  -6.466  19.928  0.00  0.00    +0.242 C 
ATOM     12  N   UNL     1     -33.042  -5.826  18.685  0.00  0.00    -0.325 N 
ATOM     13  O   UNL     1     -33.227  -5.990  20.989  0.00  0.00    -0.270 OA
ATOM     14  H   UNL     1     -32.547  -6.077  17.802  0.00  0.00    +0.145 HD
ATOM     15  H   UNL     1     -33.709  -5.022  18.661  0.00  0.00    +0.145 HD
ENDBRANCH   8  11
ENDBRANCH   3   5
BRANCH   1  17
ATOM     16  C   UNL     1     -27.563 -13.445  20.462  0.00  0.00    +0.038 C 
ATOM     17  C   UNL     1     -28.101 -13.055  19.078  0.00  0.00    +0.154 C 
BRANCH  17  18
ATOM     18  N   UNL     1     -29.109 -14.020  18.612  0.00  0.00    -0.333 N 
ATOM     19  H   UNL     1     -28.993 -15.001  18.948  0.00  0.00    +0.147 HD
BRANCH  18  20
ATOM     20  C   UNL     1     -30.275 -13.697  17.818  0.00  0.00    +0.031 A 
ATOM     21  C   UNL     1     -31.436 -13.188  18.429  0.00  0.00    +0.023 A 
ATOM     22  C   UNL     1     -32.544 -12.827  17.668  0.00  0.00    +0.002 A 
ATOM     23  C   UNL     1     -32.514 -12.957  16.282  0.00  0.00    +0.004 A 
ATOM     24  C   UNL     1     -31.373 -13.449  15.638  0.00  0.00    -0.042 A 
ATOM     25  C   UNL     1     -31.423 -13.627  14.137  0.00  0.00    +0.035 C 
ATOM     26  C   UNL     1     -30.036 -13.797  13.518  0.00  0.00    +0.005 C 
ATOM     27  C   UNL     1     -29.247 -14.853  14.285  0.00  0.00    +0.005 C 
ATOM     28  C   UNL     1     -29.003 -14.393  15.725  0.00  0.00    +0.037 C 
ATOM     29  C   UNL     1     -30.250 -13.856  16.407  0.00  0.00    -0.023 A 
ENDBRANCH  18  20
ENDBRANCH  17  18
ENDBRANCH   1  17
TORSDOF 5
ENDMDL
MODEL 5
REMARK VINA RESULT:    -4.536      3.870      5.479
REMARK INTER + INTRA:          -6.796
REMARK INTER:                  -5.839
REMARK INTRA:                  -0.957
REMARK UNBOUND:                -0.934
REMARK  Name = 
REMARK  6 active torsions:
REMARK  status: ('A' for Active; 'I' for Inactive)
REMARK    1  A    between atoms: C_1  and  C_2
REMARK    2  A    between atoms: C_2  and  N_3
REMARK    3  A    between atoms: C_2  and  C_14
REMARK    4  A    between atoms: N_3  and  C_4
REMARK    5  A    between atoms: N_16  and  C_17
REMARK    6  A    between atoms: C_20  and  C_23
REMARK                            x       y       z     vdW  Elec       q    Type
REMARK                         _______ _______ _______ _____ _____    ______ ____
ROOT
ATOM      1  C   UNL     1     -34.371 -10.979  15.116  0.00  0.00    +0.237 C 
ATOM      2  O   UNL     1     -35.024 -11.591  16.007  0.00  0.00    -0.273 OA
ATOM      3  N   UNL     1     -33.974  -9.615  15.333  0.00  0.00    -0.284 N 
ATOM      4  H   UNL     1     -33.858  -9.000  14.497  0.00  0.00    +0.155 HD
ENDROOT
BRANCH   3   5
ATOM      5  C   UNL     1     -33.831  -9.021  16.635  0.00  0.00    +0.033 A 
ATOM      6  C   UNL     1     -32.700  -9.265  17.433  0.00  0.00    +0.024 A 
ATOM      7  C   UNL     1     -32.574  -8.657  18.685  0.00  0.00    +0.015 A 
ATOM      8  C   UNL     1     -33.565  -7.779  19.158  0.00  0.00    +0.037 A 
ATOM      9  C   UNL     1     -34.690  -7.530  18.353  0.00  0.00    +0.015 A 
ATOM     10  C   UNL     1     -34.815  -8.138  17.100  0.00  0.00    +0.024 A 
BRANCH   8  11
ATOM     11  C   UNL     1     -33.417  -7.147  20.492  0.00  0.00    +0.242 C 
ATOM     12  N   UNL     1     -34.428  -7.273  21.496  0.00  0.00    -0.325 N 
ATOM     13  O   UNL     1     -32.385  -6.471  20.751  0.00  0.00    -0.270 OA
ATOM     14  H   UNL     1     -35.364  -7.683  21.286  0.00  0.00    +0.145 HD
ATOM     15  H   UNL     1     -34.272  -6.868  22.446  0.00  0.00    +0.145 HD
ENDBRANCH   8  11
ENDBRANCH   3   5
BRANCH   1  17
ATOM     16  C   UNL     1     -34.959 -11.031  12.648  0.00  0.00    +0.038 C 
ATOM     17  C   UNL     1     -34.125 -11.643  13.782  0.00  0.00    +0.154 C 
BRANCH  17  18
ATOM     18  N   UNL     1     -32.694 -11.649  13.441  0.00  0.00    -0.333 N 
ATOM     19  H   UNL     1     -32.239 -10.713  13.362  0.00  0.00    +0.147 HD
BRANCH  18  20
ATOM     20  C   UNL     1     -31.869 -12.830  13.305  0.00  0.00    +0.031 A 
ATOM     21  C   UNL     1     -31.845 -13.548  12.095  0.00  0.00    +0.023 A 
ATOM     22  C   UNL     1     -31.016 -14.655  11.938  0.00  0.00    +0.002 A 
ATOM     23  C   UNL     1     -30.187 -15.062  12.979  0.00  0.00    +0.004 A 
ATOM     24  C   UNL     1     -30.174 -14.365  14.193  0.00  0.00    -0.042 A 
ATOM     25  C   UNL     1     -29.299 -14.892  15.308  0.00  0.00    +0.035 C 
ATOM     26  C   UNL     1     -29.075 -13.864  16.417  0.00  0.00    +0.005 C 
ATOM     27  C   UNL     1     -30.409 -13.263  16.848  0.00  0.00    +0.005 C 
ATOM     28  C   UNL     1     -31.043 -12.489  15.689  0.00  0.00    +0.037 C 
ATOM     29  C   UNL     1     -31.043 -13.257  14.379  0.00  0.00    -0.023 A 
ENDBRANCH  18  20
ENDBRANCH  17  18
ENDBRANCH   1  17
TORSDOF 5
ENDMDL
MODEL 6
REMARK VINA RESULT:    -4.464      3.892      4.789
REMARK INTER + INTRA:          -6.703
REMARK INTER:                  -6.533
REMARK INTRA:                  -0.169
REMARK UNBOUND:                -0.934
REMARK  Name = 
REMARK  6 active torsions:
REMARK  status: ('A' for Active; 'I' for Inactive)
REMARK    1  A    between atoms: C_1  and  C_2
REMARK    2  A    between atoms: C_2  and  N_3
REMARK    3  A    between atoms: C_2  and  C_14
REMARK    4  A    between atoms: N_3  and  C_4
REMARK    5  A    between atoms: N_16  and  C_17
REMARK    6  A    between atoms: C_20  and  C_23
REMARK                            x       y       z     vdW  Elec       q    Type
REMARK                         _______ _______ _______ _____ _____    ______ ____
ROOT
ATOM      1  C   UNL     1     -33.446  -9.492  16.652  0.00  0.00    +0.237 C 
ATOM      2  O   UNL     1     -32.289  -9.292  16.187  0.00  0.00    -0.273 OA
ATOM      3  N   UNL     1     -33.693  -9.307  18.056  0.00  0.00    -0.284 N 
ATOM      4  H   UNL     1     -34.453  -9.871  18.498  0.00  0.00    +0.155 HD
ENDROOT
BRANCH   3   5
ATOM      5  C   UNL     1     -32.888  -8.473  18.906  0.00  0.00    +0.033 A 
ATOM      6  C   UNL     1     -31.728  -8.963  19.531  0.00  0.00    +0.024 A 
ATOM      7  C   UNL     1     -30.950  -8.125  20.335  0.00  0.00    +0.015 A 
ATOM      8  C   UNL     1     -31.302  -6.776  20.515  0.00  0.00    +0.037 A 
ATOM      9  C   UNL     1     -32.458  -6.287  19.881  0.00  0.00    +0.015 A 
ATOM     10  C   UNL     1     -33.235  -7.125  19.077  0.00  0.00    +0.024 A 
BRANCH   8  11
ATOM     11  C   UNL     1     -30.467  -5.903  21.377  0.00  0.00    +0.242 C 
ATOM     12  N   UNL     1     -29.049  -6.072  21.460  0.00  0.00    -0.325 N 
ATOM     13  O   UNL     1     -31.012  -4.998  22.062  0.00  0.00    -0.270 OA
ATOM     14  H   UNL     1     -28.567  -6.897  21.042  0.00  0.00    +0.145 HD
ATOM     15  H   UNL     1     -28.478  -5.406  22.028  0.00  0.00    +0.145 HD
ENDBRANCH   8  11
ENDBRANCH   3   5
BRANCH   1  17
ATOM     16  C   UNL     1     -34.650  -9.277  14.428  0.00  0.00    +0.038 C 
ATOM     17  C   UNL     1     -34.526 -10.044  15.753  0.00  0.00    +0.154 C 
BRANCH  17  18
ATOM     18  N   UNL     1     -34.342 -11.484  15.514  0.00  0.00    -0.333 N 
ATOM     19  H   UNL     1     -34.759 -12.123  16.226  0.00  0.00    +0.147 HD
BRANCH  18  20
ATOM     20  C   UNL     1     -33.722 -12.067  14.344  0.00  0.00    +0.031 A 
ATOM     21  C   UNL     1     -34.314 -11.924  13.076  0.00  0.00    +0.023 A 
ATOM     22  C   UNL     1     -33.698 -12.437  11.938  0.00  0.00    +0.002 A 
ATOM     23  C   UNL     1     -32.476 -13.095  12.039  0.00  0.00    +0.004 A 
ATOM     24  C   UNL     1     -31.851 -13.247  13.283  0.00  0.00    -0.042 A 
ATOM     25  C   UNL     1     -30.555 -14.025  13.338  0.00  0.00    +0.035 C 
ATOM     26  C   UNL     1     -29.788 -13.801  14.642  0.00  0.00    +0.005 C 
ATOM     27  C   UNL     1     -30.723 -13.981  15.834  0.00  0.00    +0.005 C 
ATOM     28  C   UNL     1     -31.823 -12.916  15.813  0.00  0.00    +0.037 C 
ATOM     29  C   UNL     1     -32.486 -12.760  14.456  0.00  0.00    -0.023 A 
ENDBRANCH  18  20
ENDBRANCH  17  18
ENDBRANCH   1  17
TORSDOF 5
ENDMDL
MODEL 7
REMARK VINA RESULT:    -4.424      2.131      2.911
REMARK INTER + INTRA:          -6.652
REMARK INTER:                  -6.451
REMARK INTRA:                  -0.201
REMARK UNBOUND:                -0.934
REMARK  Name = 
REMARK  6 active torsions:
REMARK  status: ('A' for Active; 'I' for Inactive)
REMARK    1  A    between atoms: C_1  and  C_2
REMARK    2  A    between atoms: C_2  and  N_3
REMARK    3  A    between atoms: C_2  and  C_14
REMARK    4  A    between atoms: N_3  and  C_4
REMARK    5  A    between atoms: N_16  and  C_17
REMARK    6  A    between atoms: C_20  and  C_23
REMARK                            x       y       z     vdW  Elec       q    Type
REMARK                         _______ _______ _______ _____ _____    ______ ____
ROOT
ATOM      1  C   UNL     1     -31.777 -11.186  20.530  0.00  0.00    +0.237 C 
ATOM      2  O   UNL     1     -31.668 -11.539  21.737  0.00  0.00    -0.273 OA
ATOM      3  N   UNL     1     -30.624 -11.204  19.673  0.00  0.00    -0.284 N 
ATOM      4  H   UNL     1     -30.595 -10.530  18.876  0.00  0.00    +0.155 HD
ENDROOT
BRANCH   3   5
ATOM      5  C   UNL     1     -29.463 -12.018  19.912  0.00  0.00    +0.033 A 
ATOM      6  C   UNL     1     -28.256 -11.795  19.228  0.00  0.00    +0.024 A 
ATOM      7  C   UNL     1     -27.135 -12.586  19.495  0.00  0.00    +0.015 A 
ATOM      8  C   UNL     1     -27.191 -13.603  20.464  0.00  0.00    +0.037 A 
ATOM      9  C   UNL     1     -28.397 -13.818  21.153  0.00  0.00    +0.015 A 
ATOM     10  C   UNL     1     -29.517 -13.025  20.885  0.00  0.00    +0.024 A 
BRANCH   8  11
ATOM     11  C   UNL     1     -25.992 -14.437  20.730  0.00  0.00    +0.242 C 
ATOM     12  N   UNL     1     -25.601 -14.779  22.062  0.00  0.00    -0.325 N 
ATOM     13  O   UNL     1     -25.290 -14.846  19.767  0.00  0.00    -0.270 OA
ATOM     14  H   UNL     1     -26.048 -14.342  22.898  0.00  0.00    +0.145 HD
ATOM     15  H   UNL     1     -24.787 -15.415  22.219  0.00  0.00    +0.145 HD
ENDBRANCH   8  11
ENDBRANCH   3   5
BRANCH   1  17
ATOM     16  C   UNL     1     -33.048  -9.112  19.807  0.00  0.00    +0.038 C 
ATOM     17  C   UNL     1     -33.090 -10.630  20.031  0.00  0.00    +0.154 C 
BRANCH  17  18
ATOM     18  N   UNL     1     -33.545 -11.330  18.820  0.00  0.00    -0.333 N 
ATOM     19  H   UNL     1     -34.400 -11.920  18.926  0.00  0.00    +0.147 HD
BRANCH  18  20
ATOM     20  C   UNL     1     -32.963 -11.191  17.502  0.00  0.00    +0.031 A 
ATOM     21  C   UNL     1     -33.126  -9.998  16.773  0.00  0.00    +0.023 A 
ATOM     22  C   UNL     1     -32.528  -9.836  15.527  0.00  0.00    +0.002 A 
ATOM     23  C   UNL     1     -31.747 -10.853  14.987  0.00  0.00    +0.004 A 
ATOM     24  C   UNL     1     -31.553 -12.050  15.689  0.00  0.00    -0.042 A 
ATOM     25  C   UNL     1     -30.746 -13.142  15.023  0.00  0.00    +0.035 C 
ATOM     26  C   UNL     1     -30.286 -14.218  16.008  0.00  0.00    +0.005 C 
ATOM     27  C   UNL     1     -31.464 -14.685  16.857  0.00  0.00    +0.005 C 
ATOM     28  C   UNL     1     -31.989 -13.533  17.719  0.00  0.00    +0.037 C 
ATOM     29  C   UNL     1     -32.188 -12.242  16.944  0.00  0.00    -0.023 A 
ENDBRANCH  18  20
ENDBRANCH  17  18
ENDBRANCH   1  17
TORSDOF 5
ENDMDL
MODEL 8
REMARK VINA RESULT:    -4.196      2.899      7.067
REMARK INTER + INTRA:          -6.357
REMARK INTER:                  -5.477
REMARK INTRA:                  -0.880
REMARK UNBOUND:                -0.934
REMARK  Name = 
REMARK  6 active torsions:
REMARK  status: ('A' for Active; 'I' for Inactive)
REMARK    1  A    between atoms: C_1  and  C_2
REMARK    2  A    between atoms: C_2  and  N_3
REMARK    3  A    between atoms: C_2  and  C_14
REMARK    4  A    between atoms: N_3  and  C_4
REMARK    5  A    between atoms: N_16  and  C_17
REMARK    6  A    between atoms: C_20  and  C_23
REMARK                            x       y       z     vdW  Elec       q    Type
REMARK                         _______ _______ _______ _____ _____    ______ ____
ROOT
ATOM      1  C   UNL     1     -32.876 -10.201  18.922  0.00  0.00    +0.237 C 
ATOM      2  O   UNL     1     -32.987  -9.148  18.233  0.00  0.00    -0.273 OA
ATOM      3  N   UNL     1     -33.197 -11.474  18.337  0.00  0.00    -0.284 N 
ATOM      4  H   UNL     1     -33.535 -12.232  18.971  0.00  0.00    +0.155 HD
ENDROOT
BRANCH   3   5
ATOM      5  C   UNL     1     -33.183 -11.730  16.923  0.00  0.00    +0.033 A 
ATOM      6  C   UNL     1     -34.280 -11.406  16.106  0.00  0.00    +0.024 A 
ATOM      7  C   UNL     1     -34.231 -11.644  14.729  0.00  0.00    +0.015 A 
ATOM      8  C   UNL     1     -33.081 -12.193  14.138  0.00  0.00    +0.037 A 
ATOM      9  C   UNL     1     -31.982 -12.507  14.956  0.00  0.00    +0.015 A 
ATOM     10  C   UNL     1     -32.031 -12.268  16.332  0.00  0.00    +0.024 A 
BRANCH   8  11
ATOM     11  C   UNL     1     -33.050 -12.444  12.675  0.00  0.00    +0.242 C 
ATOM     12  N   UNL     1     -34.245 -12.715  11.938  0.00  0.00    -0.325 N 
ATOM     13  O   UNL     1     -31.948 -12.431  12.063  0.00  0.00    -0.270 OA
ATOM     14  H   UNL     1     -35.157 -12.893  12.413  0.00  0.00    +0.145 HD
ATOM     15  H   UNL     1     -34.201 -12.829  10.900  0.00  0.00    +0.145 HD
ENDBRANCH   8  11
ENDBRANCH   3   5
BRANCH   1  17
ATOM     16  C   UNL     1     -33.095 -11.262  21.217  0.00  0.00    +0.038 C 
ATOM     17  C   UNL     1     -32.529 -10.100  20.388  0.00  0.00    +0.154 C 
BRANCH  17  18
ATOM     18  N   UNL     1     -31.078  -9.965  20.589  0.00  0.00    -0.333 N 
ATOM     19  H   UNL     1     -30.779  -9.515  21.482  0.00  0.00    +0.147 HD
BRANCH  18  20
ATOM     20  C   UNL     1     -30.057 -10.485  19.705  0.00  0.00    +0.031 A 
ATOM     21  C   UNL     1     -29.844  -9.903  18.441  0.00  0.00    +0.023 A 
ATOM     22  C   UNL     1     -28.831 -10.363  17.605  0.00  0.00    +0.002 A 
ATOM     23  C   UNL     1     -28.003 -11.405  18.015  0.00  0.00    +0.004 A 
ATOM     24  C   UNL     1     -28.178 -12.000  19.270  0.00  0.00    -0.042 A 
ATOM     25  C   UNL     1     -27.288 -13.168  19.634  0.00  0.00    +0.035 C 
ATOM     26  C   UNL     1     -27.305 -13.477  21.131  0.00  0.00    +0.005 C 
ATOM     27  C   UNL     1     -28.744 -13.557  21.631  0.00  0.00    +0.005 C 
ATOM     28  C   UNL     1     -29.436 -12.200  21.481  0.00  0.00    +0.037 C 
ATOM     29  C   UNL     1     -29.231 -11.565  20.117  0.00  0.00    -0.023 A 
ENDBRANCH  18  20
ENDBRANCH  17  18
ENDBRANCH   1  17
TORSDOF 5
ENDMDL
