MODEL 1
REMARK VINA RESULT:    -4.857      0.000      0.000
REMARK INTER + INTRA:          -6.313
REMARK INTER:                  -5.709
REMARK INTRA:                  -0.604
REMARK UNBOUND:                -0.604
REMARK  Name = 
REMARK  4 active torsions:
REMARK  status: ('A' for Active; 'I' for Inactive)
REMARK    1  A    between atoms: C_1  and  C_2
REMARK    2  A    between atoms: C_4  and  C_14
REMARK    3  A    between atoms: C_6  and  C_7
REMARK    4  A    between atoms: C_18  and  C_20
REMARK                            x       y       z     vdW  Elec       q    Type
REMARK                         _______ _______ _______ _____ _____    ______ ____
ROOT
ATOM      1  C   UNL     1     -30.503  -8.723  20.468  0.00  0.00    +0.054 C 
ATOM      2  C   UNL     1     -31.000  -9.304  19.183  0.00  0.00    +0.015 A 
ATOM      3  S   UNL     1     -32.243  -8.638  18.267  0.00  0.00    -0.072 S 
ATOM      4  C   UNL     1     -32.201  -9.857  17.103  0.00  0.00    +0.109 A 
ATOM      5  N   UNL     1     -31.245 -10.768  17.398  0.00  0.00    -0.239 NA
ATOM      6  C   UNL     1     -30.562 -10.469  18.538  0.00  0.00    +0.082 A 
ENDROOT
BRANCH   6   7
ATOM      7  C   UNL     1     -29.478 -11.352  19.021  0.00  0.00    +0.001 A 
ATOM      8  C   UNL     1     -28.181 -11.277  18.483  0.00  0.00    +0.011 A 
ATOM      9  C   UNL     1     -27.176 -12.134  18.940  0.00  0.00    +0.020 A 
ATOM     10  C   UNL     1     -27.458 -13.083  19.928  0.00  0.00    +0.041 A 
ATOM     11 CL   UNL     1     -26.196 -14.159  20.498  0.00  0.00    -0.084 Cl
ATOM     12  C   UNL     1     -28.750 -13.179  20.452  0.00  0.00    +0.020 A 
ATOM     13  C   UNL     1     -29.758 -12.323  19.997  0.00  0.00    +0.011 A 
ENDBRANCH   6   7
BRANCH   4  14
ATOM     14  C   UNL     1     -33.078  -9.950  15.912  0.00  0.00    +0.008 A 
ATOM     15  C   UNL     1     -34.015  -8.937  15.651  0.00  0.00    +0.010 A 
ATOM     16  C   UNL     1     -34.838  -9.008  14.526  0.00  0.00    +0.001 A 
ATOM     17  C   UNL     1     -34.743 -10.092  13.653  0.00  0.00    +0.013 A 
ATOM     18  C   UNL     1     -33.823 -11.127  13.899  0.00  0.00    +0.037 A 
ATOM     19  C   UNL     1     -32.987 -11.041  15.027  0.00  0.00    +0.023 A 
BRANCH  18  20
ATOM     20  C   UNL     1     -33.732 -12.271  12.959  0.00  0.00    +0.242 C 
ATOM     21  N   UNL     1     -34.902 -12.951  12.495  0.00  0.00    -0.325 N 
ATOM     22  O   UNL     1     -32.604 -12.650  12.544  0.00  0.00    -0.270 OA
ATOM     23  H   UNL     1     -34.806 -13.792  11.882  0.00  0.00    +0.145 HD
ATOM     24  H   UNL     1     -35.860 -12.583  12.675  0.00  0.00    +0.145 HD
ENDBRANCH  18  20
ENDBRANCH   4  14
TORSDOF 3
ENDMDL
MODEL 2
REMARK VINA RESULT:    -4.796      1.861      2.677
REMARK INTER + INTRA:          -6.241
REMARK INTER:                  -5.603
REMARK INTRA:                  -0.638
REMARK UNBOUND:                -0.604
REMARK  Name = 
REMARK  4 active torsions:
REMARK  status: ('A' for Active; 'I' for Inactive)
REMARK    1  A    between atoms: C_1  and  C_2
REMARK    2  A    between atoms: C_4  and  C_14
REMARK    3  A    between atoms: C_6  and  C_7
REMARK    4  A    between atoms: C_18  and  C_20
REMARK                            x       y       z     vdW  Elec       q    Type
REMARK                         _______ _______ _______ _____ _____    ______ ____
ROOT
ATOM      1  C   UNL     1     -29.815  -9.790  19.761  0.00  0.00    +0.054 C 
ATOM      2  C   UNL     1     -29.979 -10.699  18.586  0.00  0.00    +0.015 A 
ATOM      3  S   UNL     1     -31.000 -10.384  17.288  0.00  0.00    -0.072 S 
ATOM      4  C   UNL     1     -30.645 -11.832  16.501  0.00  0.00    +0.109 A 
ATOM      5  N   UNL     1     -29.750 -12.557  17.212  0.00  0.00    -0.239 NA
ATOM      6  C   UNL     1     -29.360 -11.937  18.361  0.00  0.00    +0.082 A 
ENDROOT
BRANCH   6   7
ATOM      7  C   UNL     1     -28.386 -12.578  19.270  0.00  0.00    +0.001 A 
ATOM      8  C   UNL     1     -27.001 -12.408  19.094  0.00  0.00    +0.011 A 
ATOM      9  C   UNL     1     -26.097 -13.039  19.952  0.00  0.00    +0.020 A 
ATOM     10  C   UNL     1     -26.564 -13.855  20.987  0.00  0.00    +0.041 A 
ATOM     11 CL   UNL     1     -25.427 -14.648  22.062  0.00  0.00    -0.084 Cl
ATOM     12  C   UNL     1     -27.938 -14.047  21.156  0.00  0.00    +0.020 A 
ATOM     13  C   UNL     1     -28.846 -13.418  20.299  0.00  0.00    +0.011 A 
ENDBRANCH   6   7
BRANCH   4  14
ATOM     14  C   UNL     1     -31.218 -12.282  15.211  0.00  0.00    +0.008 A 
ATOM     15  C   UNL     1     -30.581 -13.296  14.476  0.00  0.00    +0.010 A 
ATOM     16  C   UNL     1     -31.118 -13.736  13.266  0.00  0.00    +0.001 A 
ATOM     17  C   UNL     1     -32.291 -13.167  12.769  0.00  0.00    +0.013 A 
ATOM     18  C   UNL     1     -32.941 -12.141  13.477  0.00  0.00    +0.037 A 
ATOM     19  C   UNL     1     -32.402 -11.712  14.704  0.00  0.00    +0.023 A 
BRANCH  18  20
ATOM     20  C   UNL     1     -34.189 -11.548  12.936  0.00  0.00    +0.242 C 
ATOM     21  N   UNL     1     -34.771 -10.376  13.515  0.00  0.00    -0.325 N 
ATOM     22  O   UNL     1     -34.748 -12.075  11.938  0.00  0.00    -0.270 OA
ATOM     23  H   UNL     1     -35.682 -10.015  13.153  0.00  0.00    +0.145 HD
ATOM     24  H   UNL     1     -34.269  -9.810  14.233  0.00  0.00    +0.145 HD
ENDBRANCH  18  20
ENDBRANCH   4  14
TORSDOF 3
ENDMDL
MODEL 3
REMARK VINA RESULT:    -4.605      2.976      3.978
REMARK INTER + INTRA:          -6.016
REMARK INTER:                  -5.551
REMARK INTRA:                  -0.465
REMARK UNBOUND:                -0.604
REMARK  Name = 
REMARK  4 active torsions:
REMARK  status: ('A' for Active; 'I' for Inactive)
REMARK    1  A    between atoms: C_1  and  C_2
REMARK    2  A    between atoms: C_4  and  C_14
REMARK    3  A    between atoms: C_6  and  C_7
REMARK    4  A    between atoms: C_18  and  C_20
REMARK                            x       y       z     vdW  Elec       q    Type
REMARK                         _______ _______ _______ _____ _____    ______ ____
ROOT
ATOM      1  C   UNL     1     -29.250 -14.838  15.348  0.00  0.00    +0.054 C 
ATOM      2  C   UNL     1     -30.258 -13.740  15.467  0.00  0.00    +0.015 A 
ATOM      3  S   UNL     1     -31.274 -13.256  14.218  0.00  0.00    -0.072 S 
ATOM      4  C   UNL     1     -31.991 -12.024  15.117  0.00  0.00    +0.109 A 
ATOM      5  N   UNL     1     -31.471 -11.977  16.366  0.00  0.00    -0.239 NA
ATOM      6  C   UNL     1     -30.521 -12.929  16.580  0.00  0.00    +0.082 A 
ENDROOT
BRANCH   6   7
ATOM      7  C   UNL     1     -29.837 -13.031  17.887  0.00  0.00    +0.001 A 
ATOM      8  C   UNL     1     -30.531 -13.428  19.044  0.00  0.00    +0.011 A 
ATOM      9  C   UNL     1     -29.870 -13.499  20.274  0.00  0.00    +0.020 A 
ATOM     10  C   UNL     1     -28.517 -13.163  20.365  0.00  0.00    +0.041 A 
ATOM     11 CL   UNL     1     -27.691 -13.251  21.910  0.00  0.00    -0.084 Cl
ATOM     12  C   UNL     1     -27.825 -12.746  19.224  0.00  0.00    +0.020 A 
ATOM     13  C   UNL     1     -28.483 -12.673  17.992  0.00  0.00    +0.011 A 
ENDBRANCH   6   7
BRANCH   4  14
ATOM     14  C   UNL     1     -33.046 -11.100  14.637  0.00  0.00    +0.008 A 
ATOM     15  C   UNL     1     -33.769 -11.406  13.473  0.00  0.00    +0.010 A 
ATOM     16  C   UNL     1     -34.772 -10.550  13.017  0.00  0.00    +0.001 A 
ATOM     17  C   UNL     1     -35.062  -9.375  13.712  0.00  0.00    +0.013 A 
ATOM     18  C   UNL     1     -34.344  -9.037  14.873  0.00  0.00    +0.037 A 
ATOM     19  C   UNL     1     -33.343  -9.913  15.333  0.00  0.00    +0.023 A 
BRANCH  18  20
ATOM     20  C   UNL     1     -34.666  -7.786  15.601  0.00  0.00    +0.242 C 
ATOM     21  N   UNL     1     -34.655  -6.515  14.944  0.00  0.00    -0.325 N 
ATOM     22  O   UNL     1     -34.972  -7.836  16.823  0.00  0.00    -0.270 OA
ATOM     23  H   UNL     1     -34.826  -5.644  15.495  0.00  0.00    +0.145 HD
ATOM     24  H   UNL     1     -34.569  -6.432  13.908  0.00  0.00    +0.145 HD
ENDBRANCH  18  20
ENDBRANCH   4  14
TORSDOF 3
ENDMDL
MODEL 4
REMARK VINA RESULT:    -4.099      3.073      4.520
REMARK INTER + INTRA:          -5.422
REMARK INTER:                  -4.844
REMARK INTRA:                  -0.578
REMARK UNBOUND:                -0.604
REMARK  Name = 
REMARK  4 active torsions:
REMARK  status: ('A' for Active; 'I' for Inactive)
REMARK    1  A    between atoms: C_1  and  C_2
REMARK    2  A    between atoms: C_4  and  C_14
REMARK    3  A    between atoms: C_6  and  C_7
REMARK    4  A    between atoms: C_18  and  C_20
REMARK                            x       y       z     vdW  Elec       q    Type
REMARK                         _______ _______ _______ _____ _____    ______ ____
ROOT
ATOM      1  C   UNL     1     -28.521 -12.714  19.676  0.00  0.00    +0.054 C 
ATOM      2  C   UNL     1     -29.382 -12.605  18.458  0.00  0.00    +0.015 A 
ATOM      3  S   UNL     1     -29.204 -13.568  17.092  0.00  0.00    -0.072 S 
ATOM      4  C   UNL     1     -30.446 -12.804  16.245  0.00  0.00    +0.109 A 
ATOM      5  N   UNL     1     -31.003 -11.824  16.992  0.00  0.00    -0.239 NA
ATOM      6  C   UNL     1     -30.435 -11.710  18.225  0.00  0.00    +0.082 A 
ENDROOT
BRANCH   6   7
ATOM      7  C   UNL     1     -30.912 -10.690  19.183  0.00  0.00    +0.001 A 
ATOM      8  C   UNL     1     -31.736 -11.037  20.269  0.00  0.00    +0.011 A 
ATOM      9  C   UNL     1     -32.192 -10.054  21.152  0.00  0.00    +0.020 A 
ATOM     10  C   UNL     1     -31.843  -8.715  20.954  0.00  0.00    +0.041 A 
ATOM     11 CL   UNL     1     -32.418  -7.483  22.062  0.00  0.00    -0.084 Cl
ATOM     12  C   UNL     1     -31.043  -8.358  19.864  0.00  0.00    +0.020 A 
ATOM     13  C   UNL     1     -30.585  -9.339  18.979  0.00  0.00    +0.011 A 
ENDBRANCH   6   7
BRANCH   4  14
ATOM     14  C   UNL     1     -30.889 -13.135  14.869  0.00  0.00    +0.008 A 
ATOM     15  C   UNL     1     -30.091 -13.954  14.054  0.00  0.00    +0.010 A 
ATOM     16  C   UNL     1     -30.503 -14.281  12.762  0.00  0.00    +0.001 A 
ATOM     17  C   UNL     1     -31.711 -13.790  12.264  0.00  0.00    +0.013 A 
ATOM     18  C   UNL     1     -32.522 -12.955  13.054  0.00  0.00    +0.037 A 
ATOM     19  C   UNL     1     -32.106 -12.642  14.361  0.00  0.00    +0.023 A 
BRANCH  18  20
ATOM     20  C   UNL     1     -33.804 -12.444  12.510  0.00  0.00    +0.242 C 
ATOM     21  N   UNL     1     -35.018 -13.189  12.635  0.00  0.00    -0.325 N 
ATOM     22  O   UNL     1     -33.835 -11.322  11.938  0.00  0.00    -0.270 OA
ATOM     23  H   UNL     1     -35.894 -12.834  12.190  0.00  0.00    +0.145 HD
ATOM     24  H   UNL     1     -35.082 -14.040  13.235  0.00  0.00    +0.145 HD
ENDBRANCH  18  20
ENDBRANCH   4  14
TORSDOF 3
ENDMDL
MODEL 5
REMARK VINA RESULT:    -3.742      4.297      6.685
REMARK INTER + INTRA:          -5.002
REMARK INTER:                  -5.282
REMARK INTRA:                   0.279
REMARK UNBOUND:                -0.604
REMARK  Name = 
REMARK  4 active torsions:
REMARK  status: ('A' for Active; 'I' for Inactive)
REMARK    1  A    between atoms: C_1  and  C_2
REMARK    2  A    between atoms: C_4  and  C_14
REMARK    3  A    between atoms: C_6  and  C_7
REMARK    4  A    between atoms: C_18  and  C_20
REMARK                            x       y       z     vdW  Elec       q    Type
REMARK                         _______ _______ _______ _____ _____    ______ ____
ROOT
ATOM      1  C   UNL     1     -35.052 -10.624  13.194  0.00  0.00    +0.054 C 
ATOM      2  C   UNL     1     -34.364 -10.292  14.479  0.00  0.00    +0.015 A 
ATOM      3  S   UNL     1     -34.915  -9.138  15.571  0.00  0.00    -0.072 S 
ATOM      4  C   UNL     1     -33.621  -9.347  16.630  0.00  0.00    +0.109 A 
ATOM      5  N   UNL     1     -32.771 -10.293  16.168  0.00  0.00    -0.239 NA
ATOM      6  C   UNL     1     -33.175 -10.835  14.985  0.00  0.00    +0.082 A 
ENDROOT
BRANCH   6   7
ATOM      7  C   UNL     1     -32.371 -11.885  14.325  0.00  0.00    +0.001 A 
ATOM      8  C   UNL     1     -31.362 -12.577  15.019  0.00  0.00    +0.011 A 
ATOM      9  C   UNL     1     -30.600 -13.553  14.370  0.00  0.00    +0.020 A 
ATOM     10  C   UNL     1     -30.827 -13.839  13.020  0.00  0.00    +0.041 A 
ATOM     11 CL   UNL     1     -29.868 -15.062  12.208  0.00  0.00    -0.084 Cl
ATOM     12  C   UNL     1     -31.813 -13.140  12.317  0.00  0.00    +0.020 A 
ATOM     13  C   UNL     1     -32.577 -12.163  12.963  0.00  0.00    +0.011 A 
ENDBRANCH   6   7
BRANCH   4  14
ATOM     14  C   UNL     1     -33.412  -8.611  17.900  0.00  0.00    +0.008 A 
ATOM     15  C   UNL     1     -34.469  -7.884  18.472  0.00  0.00    +0.010 A 
ATOM     16  C   UNL     1     -34.287  -7.197  19.672  0.00  0.00    +0.001 A 
ATOM     17  C   UNL     1     -33.048  -7.220  20.314  0.00  0.00    +0.013 A 
ATOM     18  C   UNL     1     -31.968  -7.927  19.756  0.00  0.00    +0.037 A 
ATOM     19  C   UNL     1     -32.164  -8.630  18.552  0.00  0.00    +0.023 A 
BRANCH  18  20
ATOM     20  C   UNL     1     -30.658  -7.944  20.452  0.00  0.00    +0.242 C 
ATOM     21  N   UNL     1     -30.122  -9.149  21.005  0.00  0.00    -0.325 N 
ATOM     22  O   UNL     1     -29.991  -6.880  20.550  0.00  0.00    -0.270 OA
ATOM     23  H   UNL     1     -29.226  -9.120  21.542  0.00  0.00    +0.145 HD
ATOM     24  H   UNL     1     -30.549 -10.080  20.814  0.00  0.00    +0.145 HD
ENDBRANCH  18  20
ENDBRANCH   4  14
TORSDOF 3
ENDMDL
MODEL 6
REMARK VINA RESULT:    -3.682      3.065      4.190
REMARK INTER + INTRA:          -4.932
REMARK INTER:                  -4.391
REMARK INTRA:                  -0.541
REMARK UNBOUND:                -0.604
REMARK  Name = 
REMARK  4 active torsions:
REMARK  status: ('A' for Active; 'I' for Inactive)
REMARK    1  A    between atoms: C_1  and  C_2
REMARK    2  A    between atoms: C_4  and  C_14
REMARK    3  A    between atoms: C_6  and  C_7
REMARK    4  A    between atoms: C_18  and  C_20
REMARK                            x       y       z     vdW  Elec       q    Type
REMARK                         _______ _______ _______ _____ _____    ______ ____
ROOT
ATOM      1  C   UNL     1     -30.532 -14.801  16.190  0.00  0.00    +0.054 C 
ATOM      2  C   UNL     1     -31.155 -13.468  16.457  0.00  0.00    +0.015 A 
ATOM      3  S   UNL     1     -32.301 -12.748  15.459  0.00  0.00    -0.072 S 
ATOM      4  C   UNL     1     -32.416 -11.352  16.396  0.00  0.00    +0.109 A 
ATOM      5  N   UNL     1     -31.595 -11.426  17.469  0.00  0.00    -0.239 NA
ATOM      6  C   UNL     1     -30.901 -12.597  17.525  0.00  0.00    +0.082 A 
ENDROOT
BRANCH   6   7
ATOM      7  C   UNL     1     -29.952 -12.858  18.628  0.00  0.00    +0.001 A 
ATOM      8  C   UNL     1     -30.404 -13.166  19.924  0.00  0.00    +0.011 A 
ATOM      9  C   UNL     1     -29.490 -13.390  20.957  0.00  0.00    +0.020 A 
ATOM     10  C   UNL     1     -28.117 -13.298  20.712  0.00  0.00    +0.041 A 
ATOM     11 CL   UNL     1     -26.971 -13.578  22.010  0.00  0.00    -0.084 Cl
ATOM     12  C   UNL     1     -27.659 -12.972  19.432  0.00  0.00    +0.020 A 
ATOM     13  C   UNL     1     -28.570 -12.746  18.396  0.00  0.00    +0.011 A 
ENDBRANCH   6   7
BRANCH   4  14
ATOM     14  C   UNL     1     -33.284 -10.185  16.111  0.00  0.00    +0.008 A 
ATOM     15  C   UNL     1     -33.758  -9.965  14.808  0.00  0.00    +0.010 A 
ATOM     16  C   UNL     1     -34.585  -8.876  14.530  0.00  0.00    +0.001 A 
ATOM     17  C   UNL     1     -34.944  -7.989  15.546  0.00  0.00    +0.013 A 
ATOM     18  C   UNL     1     -34.472  -8.177  16.857  0.00  0.00    +0.037 A 
ATOM     19  C   UNL     1     -33.650  -9.286  17.132  0.00  0.00    +0.023 A 
BRANCH  18  20
ATOM     20  C   UNL     1     -34.865  -7.227  17.926  0.00  0.00    +0.242 C 
ATOM     21  N   UNL     1     -35.062  -7.660  19.275  0.00  0.00    -0.325 N 
ATOM     22  O   UNL     1     -35.017  -6.007  17.651  0.00  0.00    -0.270 OA
ATOM     23  H   UNL     1     -35.397  -6.982  19.995  0.00  0.00    +0.145 HD
ATOM     24  H   UNL     1     -34.795  -8.618  19.590  0.00  0.00    +0.145 HD
ENDBRANCH  18  20
ENDBRANCH   4  14
TORSDOF 3
ENDMDL
MODEL 7
REMARK VINA RESULT:    -3.625      4.039      5.437
REMARK INTER + INTRA:          -4.864
REMARK INTER:                  -4.265
REMARK INTRA:                  -0.599
REMARK UNBOUND:                -0.604
REMARK  Name = 
REMARK  4 active torsions:
REMARK  status: ('A' for Active; 'I' for Inactive)
REMARK    1  A    between atoms: C_1  and  C_2
REMARK    2  A    between atoms: C_4  and  C_14
REMARK    3  A    between atoms: C_6  and  C_7
REMARK    4  A    between atoms: C_18  and  C_20
REMARK                            x       y       z     vdW  Elec       q    Type
REMARK                         _______ _______ _______ _____ _____    ______ ____
ROOT
ATOM      1  C   UNL     1     -31.800 -11.684  20.660  0.00  0.00    +0.054 C 
ATOM      2  C   UNL     1     -31.868 -11.584  19.170  0.00  0.00    +0.015 A 
ATOM      3  S   UNL     1     -31.444 -12.829  18.123  0.00  0.00    -0.072 S 
ATOM      4  C   UNL     1     -31.743 -11.924  16.733  0.00  0.00    +0.109 A 
ATOM      5  N   UNL     1     -32.169 -10.681  17.053  0.00  0.00    -0.239 NA
ATOM      6  C   UNL     1     -32.257 -10.481  18.398  0.00  0.00    +0.082 A 
ENDROOT
BRANCH   6   7
ATOM      7  C   UNL     1     -32.704  -9.179  18.938  0.00  0.00    +0.001 A 
ATOM      8  C   UNL     1     -34.069  -8.848  19.009  0.00  0.00    +0.011 A 
ATOM      9  C   UNL     1     -34.469  -7.604  19.506  0.00  0.00    +0.020 A 
ATOM     10  C   UNL     1     -33.513  -6.674  19.924  0.00  0.00    +0.041 A 
ATOM     11 CL   UNL     1     -34.018  -5.113  20.545  0.00  0.00    -0.084 Cl
ATOM     12  C   UNL     1     -32.153  -6.987  19.837  0.00  0.00    +0.020 A 
ATOM     13  C   UNL     1     -31.749  -8.230  19.340  0.00  0.00    +0.011 A 
ENDBRANCH   6   7
BRANCH   4  14
ATOM     14  C   UNL     1     -31.570 -12.394  15.338  0.00  0.00    +0.008 A 
ATOM     15  C   UNL     1     -32.466 -11.974  14.341  0.00  0.00    +0.010 A 
ATOM     16  C   UNL     1     -32.306 -12.400  13.022  0.00  0.00    +0.001 A 
ATOM     17  C   UNL     1     -31.257 -13.255  12.681  0.00  0.00    +0.013 A 
ATOM     18  C   UNL     1     -30.355 -13.703  13.663  0.00  0.00    +0.037 A 
ATOM     19  C   UNL     1     -30.514 -13.257  14.988  0.00  0.00    +0.023 A 
BRANCH  18  20
ATOM     20  C   UNL     1     -29.243 -14.609  13.284  0.00  0.00    +0.242 C 
ATOM     21  N   UNL     1     -29.075 -15.062  11.938  0.00  0.00    -0.325 N 
ATOM     22  O   UNL     1     -28.417 -14.982  14.159  0.00  0.00    -0.270 OA
ATOM     23  H   UNL     1     -28.321 -15.748  11.710  0.00  0.00    +0.145 HD
ATOM     24  H   UNL     1     -29.627 -14.661  11.149  0.00  0.00    +0.145 HD
ENDBRANCH  18  20
ENDBRANCH   4  14
TORSDOF 3
ENDMDL
MODEL 8
REMARK VINA RESULT:    -3.526      3.885      5.434
REMARK INTER + INTRA:          -4.748
REMARK INTER:                  -4.191
REMARK INTRA:                  -0.557
REMARK UNBOUND:                -0.604
REMARK  Name = 
REMARK  4 active torsions:
REMARK  status: ('A' for Active; 'I' for Inactive)
REMARK    1  A    between atoms: C_1  and  C_2
REMARK    2  A    between atoms: C_4  and  C_14
REMARK    3  A    between atoms: C_6  and  C_7
REMARK    4  A    between atoms: C_18  and  C_20
REMARK                            x       y       z     vdW  Elec       q    Type
REMARK                         _______ _______ _______ _____ _____    ______ ____
ROOT
ATOM      1  C   UNL     1     -31.778 -11.445  21.283  0.00  0.00    +0.054 C 
ATOM      2  C   UNL     1     -31.688 -11.630  19.802  0.00  0.00    +0.015 A 
ATOM      3  S   UNL     1     -31.122 -13.029  19.061  0.00  0.00    -0.072 S 
ATOM      4  C   UNL     1     -31.294 -12.417  17.500  0.00  0.00    +0.109 A 
ATOM      5  N   UNL     1     -31.784 -11.156  17.531  0.00  0.00    -0.239 NA
ATOM      6  C   UNL     1     -32.021 -10.711  18.797  0.00  0.00    +0.082 A 
ENDROOT
BRANCH   6   7
ATOM      7  C   UNL     1     -32.557  -9.353  19.030  0.00  0.00    +0.001 A 
ATOM      8  C   UNL     1     -33.916  -9.058  18.819  0.00  0.00    +0.011 A 
ATOM      9  C   UNL     1     -34.399  -7.763  19.027  0.00  0.00    +0.020 A 
ATOM     10  C   UNL     1     -33.530  -6.747  19.434  0.00  0.00    +0.041 A 
ATOM     11 CL   UNL     1     -34.138  -5.122  19.692  0.00  0.00    -0.084 Cl
ATOM     12  C   UNL     1     -32.173  -7.026  19.625  0.00  0.00    +0.020 A 
ATOM     13  C   UNL     1     -31.687  -8.320  19.418  0.00  0.00    +0.011 A 
ENDBRANCH   6   7
BRANCH   4  14
ATOM     14  C   UNL     1     -30.960 -13.132  16.245  0.00  0.00    +0.008 A 
ATOM     15  C   UNL     1     -30.002 -14.159  16.258  0.00  0.00    +0.010 A 
ATOM     16  C   UNL     1     -29.687 -14.847  15.085  0.00  0.00    +0.001 A 
ATOM     17  C   UNL     1     -30.318 -14.516  13.886  0.00  0.00    +0.013 A 
ATOM     18  C   UNL     1     -31.271 -13.482  13.842  0.00  0.00    +0.037 A 
ATOM     19  C   UNL     1     -31.592 -12.802  15.032  0.00  0.00    +0.023 A 
BRANCH  18  20
ATOM     20  C   UNL     1     -31.934 -13.144  12.559  0.00  0.00    +0.242 C 
ATOM     21  N   UNL     1     -32.963 -13.972  12.010  0.00  0.00    -0.325 N 
ATOM     22  O   UNL     1     -31.599 -12.099  11.940  0.00  0.00    -0.270 OA
ATOM     23  H   UNL     1     -33.371 -13.743  11.076  0.00  0.00    +0.145 HD
ATOM     24  H   UNL     1     -33.389 -14.753  12.553  0.00  0.00    +0.145 HD
ENDBRANCH  18  20
ENDBRANCH   4  14
TORSDOF 3
ENDMDL
