MODEL 1
REMARK VINA RESULT:    -4.729      0.000      0.000
REMARK INTER + INTRA:          -7.805
REMARK INTER:                  -6.941
REMARK INTRA:                  -0.864
REMARK UNBOUND:                -0.864
REMARK  Name = 
REMARK  9 active torsions:
REMARK  status: ('A' for Active; 'I' for Inactive)
REMARK    1  A    between atoms: C_1  and  O_2
REMARK    2  A    between atoms: O_2  and  C_3
REMARK    3  A    between atoms: C_5  and  C_14
REMARK    4  A    between atoms: C_8  and  O_9
REMARK    5  A    between atoms: O_9  and  C_10
REMARK    6  A    between atoms: C_10  and  C_11
REMARK    7  A    between atoms: C_14  and  N_15
REMARK    8  A    between atoms: N_15  and  S_16
REMARK    9  A    between atoms: S_16  and  C_19
REMARK                            x       y       z     vdW  Elec       q    Type
REMARK                         _______ _______ _______ _____ _____    ______ ____
ROOT
ATOM      1  C   UNL     1     -29.358 -12.982  17.485  0.00  0.00    +0.162 A 
ATOM      2  C   UNL     1     -30.256 -12.028  16.966  0.00  0.00    +0.054 A 
ATOM      3  C   UNL     1     -30.232 -10.703  17.425  0.00  0.00    -0.028 A 
ATOM      4  C   UNL     1     -29.326 -10.338  18.428  0.00  0.00    +0.009 A 
ATOM      5  C   UNL     1     -28.434 -11.276  18.948  0.00  0.00    +0.050 A 
ATOM      6  C   UNL     1     -28.440 -12.603  18.477  0.00  0.00    +0.163 A 
ENDROOT
BRANCH   1   8
ATOM      7  C   UNL     1     -29.705 -14.731  15.728  0.00  0.00    +0.277 C 
ATOM      8  O   UNL     1     -29.348 -14.314  17.042  0.00  0.00    -0.491 OA
ENDBRANCH   1   8
BRANCH   6   9
ATOM      9  O   UNL     1     -27.556 -13.579  18.971  0.00  0.00    -0.479 OA
BRANCH   9  10
ATOM     10  C   UNL     1     -27.378 -13.913  20.347  0.00  0.00    +0.324 C 
BRANCH  10  11
ATOM     11  C   UNL     1     -25.919 -13.995  20.687  0.00  0.00    +0.248 C 
ATOM     12  N   UNL     1     -25.466 -14.834  21.749  0.00  0.00    -0.327 N 
ATOM     13  O   UNL     1     -25.084 -13.337  20.012  0.00  0.00    -0.272 OA
ATOM     14  H   UNL     1     -24.449 -14.891  21.978  0.00  0.00    +0.145 HD
ATOM     15  H   UNL     1     -26.141 -15.398  22.311  0.00  0.00    +0.145 HD
ENDBRANCH  10  11
ENDBRANCH   9  10
ENDBRANCH   6   9
BRANCH   3  16
ATOM     16  C   UNL     1     -31.217  -9.697  16.898  0.00  0.00    +0.141 C 
BRANCH  16  17
ATOM     17  N   UNL     1     -31.401  -9.902  15.460  0.00  0.00    -0.185 NA
ATOM     18  H   UNL     1     -31.260  -8.982  14.980  0.00  0.00    +0.148 HD
BRANCH  17  19
ATOM     19  S   UNL     1     -33.035 -10.394  15.138  0.00  0.00    +0.065 S 
ATOM     20  O   UNL     1     -33.841  -9.201  14.708  0.00  0.00    -0.153 OA
ATOM     21  O   UNL     1     -33.644 -10.979  16.383  0.00  0.00    -0.153 OA
BRANCH  19  22
ATOM     22  C   UNL     1     -33.054 -11.590  13.855  0.00  0.00    +0.142 A 
ATOM     23  C   UNL     1     -32.021 -12.462  13.549  0.00  0.00    +0.036 A 
ATOM     24  C   UNL     1     -32.322 -13.309  12.477  0.00  0.00    +0.010 A 
ATOM     25  C   UNL     1     -33.588 -13.101  11.942  0.00  0.00    +0.047 A 
ATOM     26  S   UNL     1     -34.335 -11.863  12.803  0.00  0.00    -0.077 S 
ENDBRANCH  19  22
ENDBRANCH  17  19
ENDBRANCH  16  17
ENDBRANCH   3  16
TORSDOF 8
ENDMDL
MODEL 2
REMARK VINA RESULT:    -4.412      2.130      2.834
REMARK INTER + INTRA:          -7.340
REMARK INTER:                  -5.737
REMARK INTRA:                  -1.604
REMARK UNBOUND:                -0.864
REMARK  Name = 
REMARK  9 active torsions:
REMARK  status: ('A' for Active; 'I' for Inactive)
REMARK    1  A    between atoms: C_1  and  O_2
REMARK    2  A    between atoms: O_2  and  C_3
REMARK    3  A    between atoms: C_5  and  C_14
REMARK    4  A    between atoms: C_8  and  O_9
REMARK    5  A    between atoms: O_9  and  C_10
REMARK    6  A    between atoms: C_10  and  C_11
REMARK    7  A    between atoms: C_14  and  N_15
REMARK    8  A    between atoms: N_15  and  S_16
REMARK    9  A    between atoms: S_16  and  C_19
REMARK                            x       y       z     vdW  Elec       q    Type
REMARK                         _______ _______ _______ _____ _____    ______ ____
ROOT
ATOM      1  C   UNL     1     -31.052 -11.184  18.923  0.00  0.00    +0.162 A 
ATOM      2  C   UNL     1     -32.261 -10.877  18.268  0.00  0.00    +0.054 A 
ATOM      3  C   UNL     1     -32.259 -10.124  17.085  0.00  0.00    -0.028 A 
ATOM      4  C   UNL     1     -31.045  -9.651  16.571  0.00  0.00    +0.009 A 
ATOM      5  C   UNL     1     -29.844  -9.951  17.214  0.00  0.00    +0.050 A 
ATOM      6  C   UNL     1     -29.837 -10.723  18.391  0.00  0.00    +0.163 A 
ENDROOT
BRANCH   1   8
ATOM      7  C   UNL     1     -31.200 -11.410  21.412  0.00  0.00    +0.277 C 
ATOM      8  O   UNL     1     -31.017 -11.942  20.104  0.00  0.00    -0.491 OA
ENDBRANCH   1   8
BRANCH   6   9
ATOM      9  O   UNL     1     -28.649 -11.049  19.068  0.00  0.00    -0.479 OA
BRANCH   9  10
ATOM     10  C   UNL     1     -27.634 -11.927  18.583  0.00  0.00    +0.324 C 
BRANCH  10  11
ATOM     11  C   UNL     1     -27.639 -13.216  19.349  0.00  0.00    +0.248 C 
ATOM     12  N   UNL     1     -28.856 -13.930  19.565  0.00  0.00    -0.327 N 
ATOM     13  O   UNL     1     -26.554 -13.687  19.784  0.00  0.00    -0.272 OA
ATOM     14  H   UNL     1     -28.852 -14.830  20.094  0.00  0.00    +0.145 HD
ATOM     15  H   UNL     1     -29.763 -13.564  19.200  0.00  0.00    +0.145 HD
ENDBRANCH  10  11
ENDBRANCH   9  10
ENDBRANCH   6   9
BRANCH   3  16
ATOM     16  C   UNL     1     -33.553  -9.764  16.409  0.00  0.00    +0.141 C 
BRANCH  16  17
ATOM     17  N   UNL     1     -33.400  -9.901  14.960  0.00  0.00    -0.185 NA
ATOM     18  H   UNL     1     -33.991  -9.169  14.500  0.00  0.00    +0.148 HD
BRANCH  17  19
ATOM     19  S   UNL     1     -34.012 -11.442  14.443  0.00  0.00    +0.065 S 
ATOM     20  O   UNL     1     -34.978 -11.242  13.309  0.00  0.00    -0.153 OA
ATOM     21  O   UNL     1     -34.724 -12.114  15.585  0.00  0.00    -0.153 OA
BRANCH  19  22
ATOM     22  C   UNL     1     -32.689 -12.455  13.896  0.00  0.00    +0.142 A 
ATOM     23  C   UNL     1     -31.709 -13.010  14.705  0.00  0.00    +0.036 A 
ATOM     24  C   UNL     1     -30.784 -13.779  13.990  0.00  0.00    +0.010 A 
ATOM     25  C   UNL     1     -31.035 -13.826  12.625  0.00  0.00    +0.047 A 
ATOM     26  S   UNL     1     -32.412 -12.911  12.304  0.00  0.00    -0.077 S 
ENDBRANCH  19  22
ENDBRANCH  17  19
ENDBRANCH  16  17
ENDBRANCH   3  16
TORSDOF 8
ENDMDL
MODEL 3
REMARK VINA RESULT:    -4.324      2.610      4.104
REMARK INTER + INTRA:          -7.210
REMARK INTER:                  -5.848
REMARK INTRA:                  -1.362
REMARK UNBOUND:                -0.864
REMARK  Name = 
REMARK  9 active torsions:
REMARK  status: ('A' for Active; 'I' for Inactive)
REMARK    1  A    between atoms: C_1  and  O_2
REMARK    2  A    between atoms: O_2  and  C_3
REMARK    3  A    between atoms: C_5  and  C_14
REMARK    4  A    between atoms: C_8  and  O_9
REMARK    5  A    between atoms: O_9  and  C_10
REMARK    6  A    between atoms: C_10  and  C_11
REMARK    7  A    between atoms: C_14  and  N_15
REMARK    8  A    between atoms: N_15  and  S_16
REMARK    9  A    between atoms: S_16  and  C_19
REMARK                            x       y       z     vdW  Elec       q    Type
REMARK                         _______ _______ _______ _____ _____    ______ ____
ROOT
ATOM      1  C   UNL     1     -29.527 -12.904  17.111  0.00  0.00    +0.162 A 
ATOM      2  C   UNL     1     -30.453 -12.045  16.485  0.00  0.00    +0.054 A 
ATOM      3  C   UNL     1     -30.463 -10.674  16.778  0.00  0.00    -0.028 A 
ATOM      4  C   UNL     1     -29.562 -10.164  17.723  0.00  0.00    +0.009 A 
ATOM      5  C   UNL     1     -28.643 -11.008  18.347  0.00  0.00    +0.050 A 
ATOM      6  C   UNL     1     -28.615 -12.382  18.043  0.00  0.00    +0.163 A 
ENDROOT
BRANCH   1   8
ATOM      7  C   UNL     1     -29.595 -14.846  15.533  0.00  0.00    +0.277 C 
ATOM      8  O   UNL     1     -29.483 -14.280  16.835  0.00  0.00    -0.491 OA
ENDBRANCH   1   8
BRANCH   6   9
ATOM      9  O   UNL     1     -27.704 -13.266  18.646  0.00  0.00    -0.479 OA
BRANCH   9  10
ATOM     10  C   UNL     1     -27.265 -13.204  20.003  0.00  0.00    +0.324 C 
BRANCH  10  11
ATOM     11  C   UNL     1     -28.103 -14.095  20.872  0.00  0.00    +0.248 C 
ATOM     12  N   UNL     1     -29.517 -13.917  20.946  0.00  0.00    -0.327 N 
ATOM     13  O   UNL     1     -27.556 -15.025  21.521  0.00  0.00    -0.272 OA
ATOM     14  H   UNL     1     -30.096 -14.544  21.548  0.00  0.00    +0.145 HD
ATOM     15  H   UNL     1     -29.991 -13.161  20.404  0.00  0.00    +0.145 HD
ENDBRANCH  10  11
ENDBRANCH   9  10
ENDBRANCH   6   9
BRANCH   3  16
ATOM     16  C   UNL     1     -31.476  -9.766  16.139  0.00  0.00    +0.141 C 
BRANCH  16  17
ATOM     17  N   UNL     1     -32.037  -8.870  17.152  0.00  0.00    -0.185 NA
ATOM     18  H   UNL     1     -31.387  -8.860  17.972  0.00  0.00    +0.148 HD
BRANCH  17  19
ATOM     19  S   UNL     1     -33.555  -9.497  17.719  0.00  0.00    +0.065 S 
ATOM     20  O   UNL     1     -34.008 -10.605  16.811  0.00  0.00    -0.153 OA
ATOM     21  O   UNL     1     -34.587  -8.403  17.717  0.00  0.00    -0.153 OA
BRANCH  19  22
ATOM     22  C   UNL     1     -33.368 -10.128  19.344  0.00  0.00    +0.142 A 
ATOM     23  C   UNL     1     -32.746 -11.320  19.681  0.00  0.00    +0.036 A 
ATOM     24  C   UNL     1     -32.741 -11.562  21.059  0.00  0.00    +0.010 A 
ATOM     25  C   UNL     1     -33.359 -10.564  21.802  0.00  0.00    +0.047 A 
ATOM     26  S   UNL     1     -33.912  -9.377  20.744  0.00  0.00    -0.077 S 
ENDBRANCH  19  22
ENDBRANCH  17  19
ENDBRANCH  16  17
ENDBRANCH   3  16
TORSDOF 8
ENDMDL
MODEL 4
REMARK VINA RESULT:    -4.287      3.075      7.358
REMARK INTER + INTRA:          -7.156
REMARK INTER:                  -5.751
REMARK INTRA:                  -1.406
REMARK UNBOUND:                -0.864
REMARK  Name = 
REMARK  9 active torsions:
REMARK  status: ('A' for Active; 'I' for Inactive)
REMARK    1  A    between atoms: C_1  and  O_2
REMARK    2  A    between atoms: O_2  and  C_3
REMARK    3  A    between atoms: C_5  and  C_14
REMARK    4  A    between atoms: C_8  and  O_9
REMARK    5  A    between atoms: O_9  and  C_10
REMARK    6  A    between atoms: C_10  and  C_11
REMARK    7  A    between atoms: C_14  and  N_15
REMARK    8  A    between atoms: N_15  and  S_16
REMARK    9  A    between atoms: S_16  and  C_19
REMARK                            x       y       z     vdW  Elec       q    Type
REMARK                         _______ _______ _______ _____ _____    ______ ____
ROOT
ATOM      1  C   UNL     1     -32.492 -12.271  14.787  0.00  0.00    +0.162 A 
ATOM      2  C   UNL     1     -31.352 -13.025  15.134  0.00  0.00    +0.054 A 
ATOM      3  C   UNL     1     -31.202 -13.533  16.432  0.00  0.00    -0.028 A 
ATOM      4  C   UNL     1     -32.182 -13.263  17.395  0.00  0.00    +0.009 A 
ATOM      5  C   UNL     1     -33.313 -12.518  17.060  0.00  0.00    +0.050 A 
ATOM      6  C   UNL     1     -33.479 -12.021  15.753  0.00  0.00    +0.163 A 
ENDROOT
BRANCH   1   8
ATOM      7  C   UNL     1     -33.180 -12.501  12.391  0.00  0.00    +0.277 C 
ATOM      8  O   UNL     1     -32.677 -11.755  13.495  0.00  0.00    -0.491 OA
ENDBRANCH   1   8
BRANCH   6   9
ATOM      9  O   UNL     1     -34.604 -11.268  15.373  0.00  0.00    -0.479 OA
BRANCH   9  10
ATOM     10  C   UNL     1     -35.062 -10.081  16.019  0.00  0.00    +0.324 C 
BRANCH  10  11
ATOM     11  C   UNL     1     -34.204  -8.909  15.645  0.00  0.00    +0.248 C 
ATOM     12  N   UNL     1     -33.101  -8.525  16.465  0.00  0.00    -0.327 N 
ATOM     13  O   UNL     1     -34.444  -8.275  14.583  0.00  0.00    -0.272 OA
ATOM     14  H   UNL     1     -32.504  -7.711  16.196  0.00  0.00    +0.145 HD
ATOM     15  H   UNL     1     -32.878  -9.046  17.341  0.00  0.00    +0.145 HD
ENDBRANCH  10  11
ENDBRANCH   9  10
ENDBRANCH   6   9
BRANCH   3  16
ATOM     16  C   UNL     1     -29.968 -14.304  16.810  0.00  0.00    +0.141 C 
BRANCH  16  17
ATOM     17  N   UNL     1     -29.828 -14.316  18.267  0.00  0.00    -0.185 NA
ATOM     18  H   UNL     1     -30.729 -13.983  18.683  0.00  0.00    +0.148 HD
BRANCH  17  19
ATOM     19  S   UNL     1     -28.601 -13.187  18.753  0.00  0.00    +0.065 S 
ATOM     20  O   UNL     1     -27.684 -12.917  17.593  0.00  0.00    -0.153 OA
ATOM     21  O   UNL     1     -27.803 -13.763  19.890  0.00  0.00    -0.153 OA
BRANCH  19  22
ATOM     22  C   UNL     1     -29.344 -11.681  19.258  0.00  0.00    +0.142 A 
ATOM     23  C   UNL     1     -29.606 -10.595  18.437  0.00  0.00    +0.036 A 
ATOM     24  C   UNL     1     -30.212  -9.532  19.116  0.00  0.00    +0.010 A 
ATOM     25  C   UNL     1     -30.423  -9.782  20.467  0.00  0.00    +0.047 A 
ATOM     26  S   UNL     1     -29.856 -11.328  20.818  0.00  0.00    -0.077 S 
ENDBRANCH  19  22
ENDBRANCH  17  19
ENDBRANCH  16  17
ENDBRANCH   3  16
TORSDOF 8
ENDMDL
MODEL 5
REMARK VINA RESULT:    -4.229      2.590      3.633
REMARK INTER + INTRA:          -7.071
REMARK INTER:                  -5.334
REMARK INTRA:                  -1.738
REMARK UNBOUND:                -0.864
REMARK  Name = 
REMARK  9 active torsions:
REMARK  status: ('A' for Active; 'I' for Inactive)
REMARK    1  A    between atoms: C_1  and  O_2
REMARK    2  A    between atoms: O_2  and  C_3
REMARK    3  A    between atoms: C_5  and  C_14
REMARK    4  A    between atoms: C_8  and  O_9
REMARK    5  A    between atoms: O_9  and  C_10
REMARK    6  A    between atoms: C_10  and  C_11
REMARK    7  A    between atoms: C_14  and  N_15
REMARK    8  A    between atoms: N_15  and  S_16
REMARK    9  A    between atoms: S_16  and  C_19
REMARK                            x       y       z     vdW  Elec       q    Type
REMARK                         _______ _______ _______ _____ _____    ______ ____
ROOT
ATOM      1  C   UNL     1     -30.090 -10.051  18.200  0.00  0.00    +0.162 A 
ATOM      2  C   UNL     1     -30.858  -9.783  17.049  0.00  0.00    +0.054 A 
ATOM      3  C   UNL     1     -32.258  -9.834  17.099  0.00  0.00    -0.028 A 
ATOM      4  C   UNL     1     -32.893 -10.182  18.298  0.00  0.00    +0.009 A 
ATOM      5  C   UNL     1     -32.140 -10.449  19.441  0.00  0.00    +0.050 A 
ATOM      6  C   UNL     1     -30.734 -10.381  19.403  0.00  0.00    +0.163 A 
ENDROOT
BRANCH   1   8
ATOM      7  C   UNL     1     -27.840 -11.123  17.971  0.00  0.00    +0.277 C 
ATOM      8  O   UNL     1     -28.688 -10.000  18.187  0.00  0.00    -0.491 OA
ENDBRANCH   1   8
BRANCH   6   9
ATOM      9  O   UNL     1     -29.939 -10.639  20.532  0.00  0.00    -0.479 OA
BRANCH   9  10
ATOM     10  C   UNL     1     -30.112 -11.732  21.434  0.00  0.00    +0.324 C 
BRANCH  10  11
ATOM     11  C   UNL     1     -29.738 -13.026  20.775  0.00  0.00    +0.248 C 
ATOM     12  N   UNL     1     -30.746 -13.915  20.293  0.00  0.00    -0.327 N 
ATOM     13  O   UNL     1     -28.523 -13.320  20.621  0.00  0.00    -0.272 OA
ATOM     14  H   UNL     1     -30.479 -14.812  19.831  0.00  0.00    +0.145 HD
ATOM     15  H   UNL     1     -31.758 -13.683  20.398  0.00  0.00    +0.145 HD
ENDBRANCH  10  11
ENDBRANCH   9  10
ENDBRANCH   6   9
BRANCH   3  16
ATOM     16  C   UNL     1     -33.074  -9.586  15.861  0.00  0.00    +0.141 C 
BRANCH  16  17
ATOM     17  N   UNL     1     -32.488 -10.316  14.736  0.00  0.00    -0.185 NA
ATOM     18  H   UNL     1     -32.844  -9.888  13.849  0.00  0.00    +0.148 HD
BRANCH  17  19
ATOM     19  S   UNL     1     -33.031 -11.965  14.754  0.00  0.00    +0.065 S 
ATOM     20  O   UNL     1     -33.318 -12.412  13.348  0.00  0.00    -0.153 OA
ATOM     21  O   UNL     1     -34.287 -12.077  15.574  0.00  0.00    -0.153 OA
BRANCH  19  22
ATOM     22  C   UNL     1     -31.787 -12.994  15.439  0.00  0.00    +0.142 A 
ATOM     23  C   UNL     1     -30.588 -13.327  14.828  0.00  0.00    +0.036 A 
ATOM     24  C   UNL     1     -29.788 -14.162  15.617  0.00  0.00    +0.010 A 
ATOM     25  C   UNL     1     -30.359 -14.483  16.843  0.00  0.00    +0.047 A 
ATOM     26  S   UNL     1     -31.860 -13.729  16.947  0.00  0.00    -0.077 S 
ENDBRANCH  19  22
ENDBRANCH  17  19
ENDBRANCH  16  17
ENDBRANCH   3  16
TORSDOF 8
ENDMDL
MODEL 6
REMARK VINA RESULT:    -4.156      3.109      4.039
REMARK INTER + INTRA:          -6.965
REMARK INTER:                  -5.223
REMARK INTRA:                  -1.742
REMARK UNBOUND:                -0.864
REMARK  Name = 
REMARK  9 active torsions:
REMARK  status: ('A' for Active; 'I' for Inactive)
REMARK    1  A    between atoms: C_1  and  O_2
REMARK    2  A    between atoms: O_2  and  C_3
REMARK    3  A    between atoms: C_5  and  C_14
REMARK    4  A    between atoms: C_8  and  O_9
REMARK    5  A    between atoms: O_9  and  C_10
REMARK    6  A    between atoms: C_10  and  C_11
REMARK    7  A    between atoms: C_14  and  N_15
REMARK    8  A    between atoms: N_15  and  S_16
REMARK    9  A    between atoms: S_16  and  C_19
REMARK                            x       y       z     vdW  Elec       q    Type
REMARK                         _______ _______ _______ _____ _____    ______ ____
ROOT
ATOM      1  C   UNL     1     -31.290 -12.816  19.785  0.00  0.00    +0.162 A 
ATOM      2  C   UNL     1     -32.454 -12.029  19.899  0.00  0.00    +0.054 A 
ATOM      3  C   UNL     1     -32.505 -10.959  20.803  0.00  0.00    -0.028 A 
ATOM      4  C   UNL     1     -31.396 -10.691  21.616  0.00  0.00    +0.009 A 
ATOM      5  C   UNL     1     -30.240 -11.465  21.510  0.00  0.00    +0.050 A 
ATOM      6  C   UNL     1     -30.177 -12.529  20.591  0.00  0.00    +0.163 A 
ENDROOT
BRANCH   1   8
ATOM      7  C   UNL     1     -31.409 -13.784  17.480  0.00  0.00    +0.277 C 
ATOM      8  O   UNL     1     -31.202 -13.889  18.884  0.00  0.00    -0.491 OA
ENDBRANCH   1   8
BRANCH   6   9
ATOM      9  O   UNL     1     -29.031 -13.331  20.449  0.00  0.00    -0.479 OA
BRANCH   9  10
ATOM     10  C   UNL     1     -27.745 -12.872  20.032  0.00  0.00    +0.324 C 
BRANCH  10  11
ATOM     11  C   UNL     1     -27.786 -12.406  18.607  0.00  0.00    +0.248 C 
ATOM     12  N   UNL     1     -27.630 -11.023  18.290  0.00  0.00    -0.327 N 
ATOM     13  O   UNL     1     -27.934 -13.246  17.680  0.00  0.00    -0.272 OA
ATOM     14  H   UNL     1     -27.654 -10.705  17.295  0.00  0.00    +0.145 HD
ATOM     15  H   UNL     1     -27.493 -10.313  19.042  0.00  0.00    +0.145 HD
ENDBRANCH  10  11
ENDBRANCH   9  10
ENDBRANCH   6   9
BRANCH   3  16
ATOM     16  C   UNL     1     -33.760 -10.146  20.951  0.00  0.00    +0.141 C 
BRANCH  16  17
ATOM     17  N   UNL     1     -34.398  -9.991  19.643  0.00  0.00    -0.185 NA
ATOM     18  H   UNL     1     -34.210 -10.857  19.084  0.00  0.00    +0.148 HD
BRANCH  17  19
ATOM     19  S   UNL     1     -33.672  -8.668  18.783  0.00  0.00    +0.065 S 
ATOM     20  O   UNL     1     -32.914  -7.801  19.748  0.00  0.00    -0.153 OA
ATOM     21  O   UNL     1     -34.742  -7.848  18.116  0.00  0.00    -0.153 OA
BRANCH  19  22
ATOM     22  C   UNL     1     -32.562  -9.284  17.573  0.00  0.00    +0.142 A 
ATOM     23  C   UNL     1     -31.179  -9.280  17.669  0.00  0.00    +0.036 A 
ATOM     24  C   UNL     1     -30.553  -9.843  16.552  0.00  0.00    +0.010 A 
ATOM     25  C   UNL     1     -31.442 -10.286  15.580  0.00  0.00    +0.047 A 
ATOM     26  S   UNL     1     -33.009  -9.978  16.111  0.00  0.00    -0.077 S 
ENDBRANCH  19  22
ENDBRANCH  17  19
ENDBRANCH  16  17
ENDBRANCH   3  16
TORSDOF 8
ENDMDL
MODEL 7
REMARK VINA RESULT:    -4.123      2.258      2.983
REMARK INTER + INTRA:          -6.916
REMARK INTER:                  -5.616
REMARK INTRA:                  -1.299
REMARK UNBOUND:                -0.864
REMARK  Name = 
REMARK  9 active torsions:
REMARK  status: ('A' for Active; 'I' for Inactive)
REMARK    1  A    between atoms: C_1  and  O_2
REMARK    2  A    between atoms: O_2  and  C_3
REMARK    3  A    between atoms: C_5  and  C_14
REMARK    4  A    between atoms: C_8  and  O_9
REMARK    5  A    between atoms: O_9  and  C_10
REMARK    6  A    between atoms: C_10  and  C_11
REMARK    7  A    between atoms: C_14  and  N_15
REMARK    8  A    between atoms: N_15  and  S_16
REMARK    9  A    between atoms: S_16  and  C_19
REMARK                            x       y       z     vdW  Elec       q    Type
REMARK                         _______ _______ _______ _____ _____    ______ ____
ROOT
ATOM      1  C   UNL     1     -29.003 -11.546  19.267  0.00  0.00    +0.162 A 
ATOM      2  C   UNL     1     -30.065 -11.165  18.421  0.00  0.00    +0.054 A 
ATOM      3  C   UNL     1     -31.344 -11.712  18.592  0.00  0.00    -0.028 A 
ATOM      4  C   UNL     1     -31.556 -12.667  19.595  0.00  0.00    +0.009 A 
ATOM      5  C   UNL     1     -30.512 -13.050  20.436  0.00  0.00    +0.050 A 
ATOM      6  C   UNL     1     -29.229 -12.489  20.282  0.00  0.00    +0.163 A 
ENDROOT
BRANCH   1   8
ATOM      7  C   UNL     1     -26.795 -11.370  18.103  0.00  0.00    +0.277 C 
ATOM      8  O   UNL     1     -27.713 -11.011  19.130  0.00  0.00    -0.491 OA
ENDBRANCH   1   8
BRANCH   6   9
ATOM      9  O   UNL     1     -28.150 -12.845  21.110  0.00  0.00    -0.479 OA
BRANCH   9  10
ATOM     10  C   UNL     1     -27.818 -14.174  21.512  0.00  0.00    +0.324 C 
BRANCH  10  11
ATOM     11  C   UNL     1     -26.416 -14.515  21.106  0.00  0.00    +0.248 C 
ATOM     12  N   UNL     1     -25.495 -15.056  22.053  0.00  0.00    -0.327 N 
ATOM     13  O   UNL     1     -26.054 -14.347  19.911  0.00  0.00    -0.272 OA
ATOM     14  H   UNL     1     -24.522 -15.297  21.763  0.00  0.00    +0.145 HD
ATOM     15  H   UNL     1     -25.780 -15.217  23.044  0.00  0.00    +0.145 HD
ENDBRANCH  10  11
ENDBRANCH   9  10
ENDBRANCH   6   9
BRANCH   3  16
ATOM     16  C   UNL     1     -32.464 -11.334  17.664  0.00  0.00    +0.141 C 
BRANCH  16  17
ATOM     17  N   UNL     1     -32.787 -12.469  16.799  0.00  0.00    -0.185 NA
ATOM     18  H   UNL     1     -32.287 -13.312  17.168  0.00  0.00    +0.148 HD
BRANCH  17  19
ATOM     19  S   UNL     1     -32.178 -12.184  15.197  0.00  0.00    +0.065 S 
ATOM     20  O   UNL     1     -31.558 -10.817  15.135  0.00  0.00    -0.153 OA
ATOM     21  O   UNL     1     -33.306 -12.261  14.205  0.00  0.00    -0.153 OA
BRANCH  19  22
ATOM     22  C   UNL     1     -30.962 -13.383  14.801  0.00  0.00    +0.142 A 
ATOM     23  C   UNL     1     -30.113 -14.002  15.705  0.00  0.00    +0.036 A 
ATOM     24  C   UNL     1     -29.249 -14.922  15.101  0.00  0.00    +0.010 A 
ATOM     25  C   UNL     1     -29.418 -15.024  13.725  0.00  0.00    +0.047 A 
ATOM     26  S   UNL     1     -30.644 -13.969  13.259  0.00  0.00    -0.077 S 
ENDBRANCH  19  22
ENDBRANCH  17  19
ENDBRANCH  16  17
ENDBRANCH   3  16
TORSDOF 8
ENDMDL
MODEL 8
REMARK VINA RESULT:    -4.105      2.031      2.738
REMARK INTER + INTRA:          -6.889
REMARK INTER:                  -6.020
REMARK INTRA:                  -0.869
REMARK UNBOUND:                -0.864
REMARK  Name = 
REMARK  9 active torsions:
REMARK  status: ('A' for Active; 'I' for Inactive)
REMARK    1  A    between atoms: C_1  and  O_2
REMARK    2  A    between atoms: O_2  and  C_3
REMARK    3  A    between atoms: C_5  and  C_14
REMARK    4  A    between atoms: C_8  and  O_9
REMARK    5  A    between atoms: O_9  and  C_10
REMARK    6  A    between atoms: C_10  and  C_11
REMARK    7  A    between atoms: C_14  and  N_15
REMARK    8  A    between atoms: N_15  and  S_16
REMARK    9  A    between atoms: S_16  and  C_19
REMARK                            x       y       z     vdW  Elec       q    Type
REMARK                         _______ _______ _______ _____ _____    ______ ____
ROOT
ATOM      1  C   UNL     1     -30.652 -12.336  20.173  0.00  0.00    +0.162 A 
ATOM      2  C   UNL     1     -31.727 -12.307  19.261  0.00  0.00    +0.054 A 
ATOM      3  C   UNL     1     -31.603 -12.897  17.995  0.00  0.00    -0.028 A 
ATOM      4  C   UNL     1     -30.389 -13.494  17.629  0.00  0.00    +0.009 A 
ATOM      5  C   UNL     1     -29.321 -13.526  18.525  0.00  0.00    +0.050 A 
ATOM      6  C   UNL     1     -29.446 -12.953  19.805  0.00  0.00    +0.163 A 
ENDROOT
BRANCH   1   8
ATOM      7  C   UNL     1     -31.869 -11.030  21.928  0.00  0.00    +0.277 C 
ATOM      8  O   UNL     1     -30.745 -11.763  21.451  0.00  0.00    -0.491 OA
ENDBRANCH   1   8
BRANCH   6   9
ATOM      9  O   UNL     1     -28.395 -12.966  20.739  0.00  0.00    -0.479 OA
BRANCH   9  10
ATOM     10  C   UNL     1     -27.931 -14.116  21.446  0.00  0.00    +0.324 C 
BRANCH  10  11
ATOM     11  C   UNL     1     -26.504 -14.413  21.095  0.00  0.00    +0.248 C 
ATOM     12  N   UNL     1     -25.619 -14.977  22.062  0.00  0.00    -0.327 N 
ATOM     13  O   UNL     1     -26.089 -14.186  19.927  0.00  0.00    -0.272 OA
ATOM     14  H   UNL     1     -24.627 -15.186  21.810  0.00  0.00    +0.145 HD
ATOM     15  H   UNL     1     -25.947 -15.185  23.030  0.00  0.00    +0.145 HD
ENDBRANCH  10  11
ENDBRANCH   9  10
ENDBRANCH   6   9
BRANCH   3  16
ATOM     16  C   UNL     1     -32.736 -12.832  17.010  0.00  0.00    +0.141 C 
BRANCH  16  17
ATOM     17  N   UNL     1     -33.230 -11.456  16.926  0.00  0.00    -0.185 NA
ATOM     18  H   UNL     1     -34.270 -11.490  16.815  0.00  0.00    +0.148 HD
BRANCH  17  19
ATOM     19  S   UNL     1     -32.596 -10.687  15.503  0.00  0.00    +0.065 S 
ATOM     20  O   UNL     1     -31.120 -10.462  15.672  0.00  0.00    -0.153 OA
ATOM     21  O   UNL     1     -33.277  -9.362  15.296  0.00  0.00    -0.153 OA
BRANCH  19  22
ATOM     22  C   UNL     1     -32.863 -11.710  14.104  0.00  0.00    +0.142 A 
ATOM     23  C   UNL     1     -31.901 -12.485  13.475  0.00  0.00    +0.036 A 
ATOM     24  C   UNL     1     -32.407 -13.203  12.385  0.00  0.00    +0.010 A 
ATOM     25  C   UNL     1     -33.761 -12.992  12.160  0.00  0.00    +0.047 A 
ATOM     26  S   UNL     1     -34.333 -11.911  13.316  0.00  0.00    -0.077 S 
ENDBRANCH  19  22
ENDBRANCH  17  19
ENDBRANCH  16  17
ENDBRANCH   3  16
TORSDOF 8
ENDMDL
