MODEL 1
REMARK VINA RESULT:    -4.284      0.000      0.000
REMARK INTER + INTRA:          -7.364
REMARK INTER:                  -6.163
REMARK INTRA:                  -1.201
REMARK UNBOUND:                -1.201
REMARK  Name = 
REMARK  10 active torsions:
REMARK  status: ('A' for Active; 'I' for Inactive)
REMARK    1  A    between atoms: C_1  and  O_2
REMARK    2  A    between atoms: O_2  and  C_3
REMARK    3  A    between atoms: C_6  and  C_7
REMARK    4  A    between atoms: C_8  and  C_9
REMARK    5  A    between atoms: C_8  and  C_14
REMARK    6  A    between atoms: C_9  and  C_10
REMARK    7  A    between atoms: C_10  and  C_11
REMARK    8  A    between atoms: C_11  and  O_13
REMARK    9  A    between atoms: C_23  and  O_25
REMARK   10  A    between atoms: O_25  and  C_26
REMARK                            x       y       z     vdW  Elec       q    Type
REMARK                         _______ _______ _______ _____ _____    ______ ____
ROOT
ATOM      1  C   UNL     1     -31.059 -12.919  17.305  0.00  0.00    +0.017 C 
ATOM      2  C   UNL     1     -30.187 -12.086  17.910  0.00  0.00    -0.014 C 
ENDROOT
BRANCH   2   3
ATOM      3  C   UNL     1     -29.225 -12.617  18.911  0.00  0.00    +0.106 A 
ATOM      4  N   UNL     1     -27.897 -12.750  18.658  0.00  0.00    -0.239 NA
ATOM      5  C   UNL     1     -27.233 -13.253  19.730  0.00  0.00    +0.079 A 
ATOM      6  C   UNL     1     -25.860 -13.498  19.763  0.00  0.00    +0.029 A 
ATOM      7  C   UNL     1     -25.296 -14.022  20.939  0.00  0.00    +0.002 A 
ATOM      8  C   UNL     1     -26.106 -14.292  22.061  0.00  0.00    +0.001 A 
ATOM      9  C   UNL     1     -27.487 -14.040  22.016  0.00  0.00    +0.017 A 
ATOM     10  C   UNL     1     -28.019 -13.521  20.839  0.00  0.00    +0.040 A 
ATOM     11  S   UNL     1     -29.609 -13.123  20.489  0.00  0.00    -0.067 S 
ENDBRANCH   2   3
BRANCH   1  15
ATOM     12  C   UNL     1     -33.867 -11.734  14.286  0.00  0.00    +0.124 A 
ATOM     13  C   UNL     1     -34.196 -11.640  15.641  0.00  0.00    +0.046 A 
ATOM     14  C   UNL     1     -33.281 -12.024  16.621  0.00  0.00    +0.015 A 
ATOM     15  C   UNL     1     -32.011 -12.496  16.260  0.00  0.00    +0.017 A 
ATOM     16  C   UNL     1     -31.667 -12.615  14.902  0.00  0.00    +0.131 A 
ATOM     17  C   UNL     1     -32.599 -12.225  13.918  0.00  0.00    +0.091 A 
BRANCH  12  19
ATOM     18  C   UNL     1     -35.044  -9.983  12.943  0.00  0.00    +0.277 C 
ATOM     19  O   UNL     1     -34.823 -11.332  13.341  0.00  0.00    -0.495 OA
ENDBRANCH  12  19
BRANCH  16  20
ATOM     20  O   UNL     1     -30.396 -13.110  14.569  0.00  0.00    -0.494 OA
ATOM     21  C   UNL     1     -30.157 -14.188  13.671  0.00  0.00    +0.277 C 
ENDBRANCH  16  20
ENDBRANCH   1  15
BRANCH   2  22
ATOM     22  C   UNL     1     -30.070 -10.628  17.506  0.00  0.00    +0.049 C 
BRANCH  22  23
ATOM     23  C   UNL     1     -30.000  -9.728  18.743  0.00  0.00    +0.125 C 
BRANCH  23  24
ATOM     24  C   UNL     1     -31.337  -9.118  19.023  0.00  0.00    +0.305 C 
ATOM     25  O   UNL     1     -31.935  -9.374  20.103  0.00  0.00    -0.251 OA
BRANCH  24  26
ATOM     26  O   UNL     1     -31.898  -8.233  18.109  0.00  0.00    -0.481 OA
ATOM     27  H   UNL     1     -32.426  -8.573  17.314  0.00  0.00    +0.295 HD
ENDBRANCH  24  26
ENDBRANCH  23  24
ENDBRANCH  22  23
ENDBRANCH   2  22
TORSDOF 8
ENDMDL
MODEL 2
REMARK VINA RESULT:    -4.270      2.735      8.222
REMARK INTER + INTRA:          -7.344
REMARK INTER:                  -7.290
REMARK INTRA:                  -0.054
REMARK UNBOUND:                -1.201
REMARK  Name = 
REMARK  10 active torsions:
REMARK  status: ('A' for Active; 'I' for Inactive)
REMARK    1  A    between atoms: C_1  and  O_2
REMARK    2  A    between atoms: O_2  and  C_3
REMARK    3  A    between atoms: C_6  and  C_7
REMARK    4  A    between atoms: C_8  and  C_9
REMARK    5  A    between atoms: C_8  and  C_14
REMARK    6  A    between atoms: C_9  and  C_10
REMARK    7  A    between atoms: C_10  and  C_11
REMARK    8  A    between atoms: C_11  and  O_13
REMARK    9  A    between atoms: C_23  and  O_25
REMARK   10  A    between atoms: O_25  and  C_26
REMARK                            x       y       z     vdW  Elec       q    Type
REMARK                         _______ _______ _______ _____ _____    ______ ____
ROOT
ATOM      1  C   UNL     1     -30.537 -11.972  17.805  0.00  0.00    +0.017 C 
ATOM      2  C   UNL     1     -31.157 -12.799  16.936  0.00  0.00    -0.014 C 
ENDROOT
BRANCH   2   3
ATOM      3  C   UNL     1     -32.094 -12.247  15.923  0.00  0.00    +0.106 A 
ATOM      4  N   UNL     1     -32.144 -12.698  14.644  0.00  0.00    -0.239 NA
ATOM      5  C   UNL     1     -33.082 -12.036  13.918  0.00  0.00    +0.079 A 
ATOM      6  C   UNL     1     -33.358 -12.284  12.573  0.00  0.00    +0.029 A 
ATOM      7  C   UNL     1     -34.356 -11.525  11.938  0.00  0.00    +0.002 A 
ATOM      8  C   UNL     1     -35.061 -10.534  12.650  0.00  0.00    +0.001 A 
ATOM      9  C   UNL     1     -34.775 -10.294  14.004  0.00  0.00    +0.017 A 
ATOM     10  C   UNL     1     -33.782 -11.060  14.608  0.00  0.00    +0.040 A 
ATOM     11  S   UNL     1     -33.225 -11.004  16.188  0.00  0.00    -0.067 S 
ENDBRANCH   2   3
BRANCH   1  15
ATOM     12  C   UNL     1     -27.652 -13.322  20.677  0.00  0.00    +0.124 A 
ATOM     13  C   UNL     1     -27.245 -12.863  19.422  0.00  0.00    +0.046 A 
ATOM     14  C   UNL     1     -28.185 -12.423  18.489  0.00  0.00    +0.015 A 
ATOM     15  C   UNL     1     -29.551 -12.421  18.806  0.00  0.00    +0.017 A 
ATOM     16  C   UNL     1     -29.981 -12.896  20.057  0.00  0.00    +0.131 A 
ATOM     17  C   UNL     1     -29.025 -13.341  20.993  0.00  0.00    +0.091 A 
BRANCH  12  19
ATOM     18  C   UNL     1     -25.421 -14.327  21.196  0.00  0.00    +0.277 C 
ATOM     19  O   UNL     1     -26.666 -13.752  21.579  0.00  0.00    -0.495 OA
ENDBRANCH  12  19
BRANCH  16  20
ATOM     20  O   UNL     1     -31.358 -12.902  20.339  0.00  0.00    -0.494 OA
ATOM     21  C   UNL     1     -32.133 -11.741  20.612  0.00  0.00    +0.277 C 
ENDBRANCH  16  20
ENDBRANCH   1  15
BRANCH   2  22
ATOM     22  C   UNL     1     -30.831 -14.280  16.879  0.00  0.00    +0.049 C 
BRANCH  22  23
ATOM     23  C   UNL     1     -30.563 -14.719  15.437  0.00  0.00    +0.125 C 
BRANCH  23  24
ATOM     24  C   UNL     1     -29.118 -14.539  15.095  0.00  0.00    +0.305 C 
ATOM     25  O   UNL     1     -28.781 -14.211  13.926  0.00  0.00    -0.251 OA
BRANCH  24  26
ATOM     26  O   UNL     1     -28.149 -14.692  16.083  0.00  0.00    -0.481 OA
ATOM     27  H   UNL     1     -28.399 -14.659  17.064  0.00  0.00    +0.295 HD
ENDBRANCH  24  26
ENDBRANCH  23  24
ENDBRANCH  22  23
ENDBRANCH   2  22
TORSDOF 8
ENDMDL
MODEL 3
REMARK VINA RESULT:    -4.157      1.861      3.922
REMARK INTER + INTRA:          -7.181
REMARK INTER:                  -6.083
REMARK INTRA:                  -1.098
REMARK UNBOUND:                -1.201
REMARK  Name = 
REMARK  10 active torsions:
REMARK  status: ('A' for Active; 'I' for Inactive)
REMARK    1  A    between atoms: C_1  and  O_2
REMARK    2  A    between atoms: O_2  and  C_3
REMARK    3  A    between atoms: C_6  and  C_7
REMARK    4  A    between atoms: C_8  and  C_9
REMARK    5  A    between atoms: C_8  and  C_14
REMARK    6  A    between atoms: C_9  and  C_10
REMARK    7  A    between atoms: C_10  and  C_11
REMARK    8  A    between atoms: C_11  and  O_13
REMARK    9  A    between atoms: C_23  and  O_25
REMARK   10  A    between atoms: O_25  and  C_26
REMARK                            x       y       z     vdW  Elec       q    Type
REMARK                         _______ _______ _______ _____ _____    ______ ____
ROOT
ATOM      1  C   UNL     1     -30.866 -10.913  18.366  0.00  0.00    +0.017 C 
ATOM      2  C   UNL     1     -30.627 -12.240  18.404  0.00  0.00    -0.014 C 
ENDROOT
BRANCH   2   3
ATOM      3  C   UNL     1     -29.546 -12.777  19.271  0.00  0.00    +0.106 A 
ATOM      4  N   UNL     1     -28.233 -12.724  18.929  0.00  0.00    -0.239 NA
ATOM      5  C   UNL     1     -27.446 -13.277  19.889  0.00  0.00    +0.079 A 
ATOM      6  C   UNL     1     -26.056 -13.365  19.812  0.00  0.00    +0.029 A 
ATOM      7  C   UNL     1     -25.358 -13.963  20.877  0.00  0.00    +0.002 A 
ATOM      8  C   UNL     1     -26.054 -14.460  21.997  0.00  0.00    +0.001 A 
ATOM      9  C   UNL     1     -27.454 -14.364  22.062  0.00  0.00    +0.017 A 
ATOM     10  C   UNL     1     -28.119 -13.768  20.994  0.00  0.00    +0.040 A 
ATOM     11  S   UNL     1     -29.763 -13.515  20.789  0.00  0.00    -0.067 S 
ENDBRANCH   2   3
BRANCH   1  15
ATOM     12  C   UNL     1     -33.981  -9.066  16.067  0.00  0.00    +0.124 A 
ATOM     13  C   UNL     1     -32.820  -9.534  15.446  0.00  0.00    +0.046 A 
ATOM     14  C   UNL     1     -31.809 -10.136  16.196  0.00  0.00    +0.015 A 
ATOM     15  C   UNL     1     -31.951 -10.294  17.581  0.00  0.00    +0.017 A 
ATOM     16  C   UNL     1     -33.104  -9.813  18.227  0.00  0.00    +0.131 A 
ATOM     17  C   UNL     1     -34.120  -9.204  17.462  0.00  0.00    +0.091 A 
BRANCH  12  19
ATOM     18  C   UNL     1     -35.014  -7.085  14.943  0.00  0.00    +0.277 C 
ATOM     19  O   UNL     1     -34.968  -8.471  15.267  0.00  0.00    -0.495 OA
ENDBRANCH  12  19
BRANCH  16  20
ATOM     20  O   UNL     1     -33.210  -9.965  19.619  0.00  0.00    -0.494 OA
ATOM     21  C   UNL     1     -33.791  -9.006  20.496  0.00  0.00    +0.277 C 
ENDBRANCH  16  20
ENDBRANCH   1  15
BRANCH   2  22
ATOM     22  C   UNL     1     -31.518 -13.228  17.674  0.00  0.00    +0.049 C 
BRANCH  22  23
ATOM     23  C   UNL     1     -30.708 -14.437  17.196  0.00  0.00    +0.125 C 
BRANCH  23  24
ATOM     24  C   UNL     1     -29.674 -14.013  16.203  0.00  0.00    +0.305 C 
ATOM     25  O   UNL     1     -30.014 -13.379  15.168  0.00  0.00    -0.251 OA
BRANCH  24  26
ATOM     26  O   UNL     1     -28.330 -14.280  16.446  0.00  0.00    -0.481 OA
ATOM     27  H   UNL     1     -27.609 -13.913  15.837  0.00  0.00    +0.295 HD
ENDBRANCH  24  26
ENDBRANCH  23  24
ENDBRANCH  22  23
ENDBRANCH   2  22
TORSDOF 8
ENDMDL
MODEL 4
REMARK VINA RESULT:    -3.817      3.309      5.756
REMARK INTER + INTRA:          -6.692
REMARK INTER:                  -5.309
REMARK INTRA:                  -1.383
REMARK UNBOUND:                -1.201
REMARK  Name = 
REMARK  10 active torsions:
REMARK  status: ('A' for Active; 'I' for Inactive)
REMARK    1  A    between atoms: C_1  and  O_2
REMARK    2  A    between atoms: O_2  and  C_3
REMARK    3  A    between atoms: C_6  and  C_7
REMARK    4  A    between atoms: C_8  and  C_9
REMARK    5  A    between atoms: C_8  and  C_14
REMARK    6  A    between atoms: C_9  and  C_10
REMARK    7  A    between atoms: C_10  and  C_11
REMARK    8  A    between atoms: C_11  and  O_13
REMARK    9  A    between atoms: C_23  and  O_25
REMARK   10  A    between atoms: O_25  and  C_26
REMARK                            x       y       z     vdW  Elec       q    Type
REMARK                         _______ _______ _______ _____ _____    ______ ____
ROOT
ATOM      1  C   UNL     1     -31.073 -10.472  17.001  0.00  0.00    +0.017 C 
ATOM      2  C   UNL     1     -31.838 -10.426  18.112  0.00  0.00    -0.014 C 
ENDROOT
BRANCH   2   3
ATOM      3  C   UNL     1     -31.947  -9.163  18.887  0.00  0.00    +0.106 A 
ATOM      4  N   UNL     1     -30.942  -8.689  19.667  0.00  0.00    -0.239 NA
ATOM      5  C   UNL     1     -31.286  -7.520  20.268  0.00  0.00    +0.079 A 
ATOM      6  C   UNL     1     -30.455  -6.801  21.127  0.00  0.00    +0.029 A 
ATOM      7  C   UNL     1     -30.934  -5.602  21.684  0.00  0.00    +0.002 A 
ATOM      8  C   UNL     1     -32.229  -5.141  21.376  0.00  0.00    +0.001 A 
ATOM      9  C   UNL     1     -33.057  -5.873  20.509  0.00  0.00    +0.017 A 
ATOM     10  C   UNL     1     -32.557  -7.056  19.972  0.00  0.00    +0.040 A 
ATOM     11  S   UNL     1     -33.299  -8.131  18.923  0.00  0.00    -0.067 S 
ENDBRANCH   2   3
BRANCH   1  15
ATOM     12  C   UNL     1     -30.648 -13.914  14.478  0.00  0.00    +0.124 A 
ATOM     13  C   UNL     1     -29.913 -13.805  15.661  0.00  0.00    +0.046 A 
ATOM     14  C   UNL     1     -30.054 -12.685  16.481  0.00  0.00    +0.015 A 
ATOM     15  C   UNL     1     -30.947 -11.661  16.137  0.00  0.00    +0.017 A 
ATOM     16  C   UNL     1     -31.682 -11.745  14.941  0.00  0.00    +0.131 A 
ATOM     17  C   UNL     1     -31.532 -12.879  14.117  0.00  0.00    +0.091 A 
BRANCH  12  19
ATOM     18  C   UNL     1     -30.049 -15.048  12.330  0.00  0.00    +0.277 C 
ATOM     19  O   UNL     1     -30.471 -15.062  13.690  0.00  0.00    -0.495 OA
ENDBRANCH  12  19
BRANCH  16  20
ATOM     20  O   UNL     1     -32.554 -10.694  14.610  0.00  0.00    -0.494 OA
ATOM     21  C   UNL     1     -33.973 -10.793  14.602  0.00  0.00    +0.277 C 
ENDBRANCH  16  20
ENDBRANCH   1  15
BRANCH   2  22
ATOM     22  C   UNL     1     -32.702 -11.602  18.530  0.00  0.00    +0.049 C 
BRANCH  22  23
ATOM     23  C   UNL     1     -32.471 -11.944  20.005  0.00  0.00    +0.125 C 
BRANCH  23  24
ATOM     24  C   UNL     1     -31.166 -12.655  20.179  0.00  0.00    +0.305 C 
ATOM     25  O   UNL     1     -30.203 -12.075  20.748  0.00  0.00    -0.251 OA
BRANCH  24  26
ATOM     26  O   UNL     1     -31.033 -13.972  19.751  0.00  0.00    -0.481 OA
ATOM     27  H   UNL     1     -30.190 -14.498  19.946  0.00  0.00    +0.295 HD
ENDBRANCH  24  26
ENDBRANCH  23  24
ENDBRANCH  22  23
ENDBRANCH   2  22
TORSDOF 8
ENDMDL
MODEL 5
REMARK VINA RESULT:    -3.759      3.703      6.406
REMARK INTER + INTRA:          -6.608
REMARK INTER:                  -5.548
REMARK INTRA:                  -1.060
REMARK UNBOUND:                -1.201
REMARK  Name = 
REMARK  10 active torsions:
REMARK  status: ('A' for Active; 'I' for Inactive)
REMARK    1  A    between atoms: C_1  and  O_2
REMARK    2  A    between atoms: O_2  and  C_3
REMARK    3  A    between atoms: C_6  and  C_7
REMARK    4  A    between atoms: C_8  and  C_9
REMARK    5  A    between atoms: C_8  and  C_14
REMARK    6  A    between atoms: C_9  and  C_10
REMARK    7  A    between atoms: C_10  and  C_11
REMARK    8  A    between atoms: C_11  and  O_13
REMARK    9  A    between atoms: C_23  and  O_25
REMARK   10  A    between atoms: O_25  and  C_26
REMARK                            x       y       z     vdW  Elec       q    Type
REMARK                         _______ _______ _______ _____ _____    ______ ____
ROOT
ATOM      1  C   UNL     1     -33.152 -10.647  17.098  0.00  0.00    +0.017 C 
ATOM      2  C   UNL     1     -31.925 -10.677  16.537  0.00  0.00    -0.014 C 
ENDROOT
BRANCH   2   3
ATOM      3  C   UNL     1     -31.620 -11.660  15.466  0.00  0.00    +0.106 A 
ATOM      4  N   UNL     1     -30.577 -12.527  15.537  0.00  0.00    -0.239 NA
ATOM      5  C   UNL     1     -30.514 -13.322  14.437  0.00  0.00    +0.079 A 
ATOM      6  C   UNL     1     -29.548 -14.307  14.231  0.00  0.00    +0.029 A 
ATOM      7  C   UNL     1     -29.595 -15.062  13.046  0.00  0.00    +0.002 A 
ATOM      8  C   UNL     1     -30.602 -14.825  12.089  0.00  0.00    +0.001 A 
ATOM      9  C   UNL     1     -31.571 -13.831  12.308  0.00  0.00    +0.017 A 
ATOM     10  C   UNL     1     -31.499 -13.099  13.490  0.00  0.00    +0.040 A 
ATOM     11  S   UNL     1     -32.499 -11.864  14.024  0.00  0.00    -0.067 S 
ENDBRANCH   2   3
BRANCH   1  15
ATOM     12  C   UNL     1     -34.398  -7.852  20.103  0.00  0.00    +0.124 A 
ATOM     13  C   UNL     1     -33.944  -9.124  20.459  0.00  0.00    +0.046 A 
ATOM     14  C   UNL     1     -33.537 -10.032  19.481  0.00  0.00    +0.015 A 
ATOM     15  C   UNL     1     -33.564  -9.673  18.126  0.00  0.00    +0.017 A 
ATOM     16  C   UNL     1     -34.035  -8.403  17.746  0.00  0.00    +0.131 A 
ATOM     17  C   UNL     1     -34.446  -7.493  18.742  0.00  0.00    +0.091 A 
BRANCH  12  19
ATOM     18  C   UNL     1     -33.915  -6.087  21.808  0.00  0.00    +0.277 C 
ATOM     19  O   UNL     1     -34.793  -6.977  21.127  0.00  0.00    -0.495 OA
ENDBRANCH  12  19
BRANCH  16  20
ATOM     20  O   UNL     1     -34.072  -8.078  16.380  0.00  0.00    -0.494 OA
ATOM     21  C   UNL     1     -35.062  -7.259  15.769  0.00  0.00    +0.277 C 
ENDBRANCH  16  20
ENDBRANCH   1  15
BRANCH   2  22
ATOM     22  C   UNL     1     -30.870  -9.642  16.883  0.00  0.00    +0.049 C 
BRANCH  22  23
ATOM     23  C   UNL     1     -29.686 -10.296  17.600  0.00  0.00    +0.125 C 
BRANCH  23  24
ATOM     24  C   UNL     1     -29.831 -10.155  19.083  0.00  0.00    +0.305 C 
ATOM     25  O   UNL     1     -30.075 -11.167  19.793  0.00  0.00    -0.251 OA
BRANCH  24  26
ATOM     26  O   UNL     1     -29.651  -8.911  19.680  0.00  0.00    -0.481 OA
ATOM     27  H   UNL     1     -30.222  -8.626  20.467  0.00  0.00    +0.295 HD
ENDBRANCH  24  26
ENDBRANCH  23  24
ENDBRANCH  22  23
ENDBRANCH   2  22
TORSDOF 8
ENDMDL
MODEL 6
REMARK VINA RESULT:    -3.751      3.817      6.406
REMARK INTER + INTRA:          -6.597
REMARK INTER:                  -5.462
REMARK INTRA:                  -1.134
REMARK UNBOUND:                -1.201
REMARK  Name = 
REMARK  10 active torsions:
REMARK  status: ('A' for Active; 'I' for Inactive)
REMARK    1  A    between atoms: C_1  and  O_2
REMARK    2  A    between atoms: O_2  and  C_3
REMARK    3  A    between atoms: C_6  and  C_7
REMARK    4  A    between atoms: C_8  and  C_9
REMARK    5  A    between atoms: C_8  and  C_14
REMARK    6  A    between atoms: C_9  and  C_10
REMARK    7  A    between atoms: C_10  and  C_11
REMARK    8  A    between atoms: C_11  and  O_13
REMARK    9  A    between atoms: C_23  and  O_25
REMARK   10  A    between atoms: O_25  and  C_26
REMARK                            x       y       z     vdW  Elec       q    Type
REMARK                         _______ _______ _______ _____ _____    ______ ____
ROOT
ATOM      1  C   UNL     1     -33.222 -10.458  17.335  0.00  0.00    +0.017 C 
ATOM      2  C   UNL     1     -31.984 -10.496  16.798  0.00  0.00    -0.014 C 
ENDROOT
BRANCH   2   3
ATOM      3  C   UNL     1     -31.664 -11.487  15.738  0.00  0.00    +0.106 A 
ATOM      4  N   UNL     1     -30.752 -12.479  15.908  0.00  0.00    -0.239 NA
ATOM      5  C   UNL     1     -30.643 -13.251  14.796  0.00  0.00    +0.079 A 
ATOM      6  C   UNL     1     -29.784 -14.345  14.678  0.00  0.00    +0.029 A 
ATOM      7  C   UNL     1     -29.768 -15.062  13.469  0.00  0.00    +0.002 A 
ATOM      8  C   UNL     1     -30.606 -14.681  12.402  0.00  0.00    +0.001 A 
ATOM      9  C   UNL     1     -31.467 -13.579  12.533  0.00  0.00    +0.017 A 
ATOM     10  C   UNL     1     -31.462 -12.887  13.741  0.00  0.00    +0.040 A 
ATOM     11  S   UNL     1     -32.366 -11.549  14.189  0.00  0.00    -0.067 S 
ENDBRANCH   2   3
BRANCH   1  15
ATOM     12  C   UNL     1     -34.419  -7.563  20.264  0.00  0.00    +0.124 A 
ATOM     13  C   UNL     1     -34.527  -7.281  18.900  0.00  0.00    +0.046 A 
ATOM     14  C   UNL     1     -34.139  -8.225  17.949  0.00  0.00    +0.015 A 
ATOM     15  C   UNL     1     -33.649  -9.476  18.350  0.00  0.00    +0.017 A 
ATOM     16  C   UNL     1     -33.515  -9.771  19.718  0.00  0.00    +0.131 A 
ATOM     17  C   UNL     1     -33.908  -8.810  20.672  0.00  0.00    +0.091 A 
BRANCH  12  19
ATOM     18  C   UNL     1     -34.074  -5.411  21.493  0.00  0.00    +0.277 C 
ATOM     19  O   UNL     1     -34.825  -6.579  21.180  0.00  0.00    -0.495 OA
ENDBRANCH  12  19
BRANCH  16  20
ATOM     20  O   UNL     1     -33.001 -11.024  20.091  0.00  0.00    -0.494 OA
ATOM     21  C   UNL     1     -32.223 -11.264  21.258  0.00  0.00    +0.277 C 
ENDBRANCH  16  20
ENDBRANCH   1  15
BRANCH   2  22
ATOM     22  C   UNL     1     -30.931  -9.465  17.159  0.00  0.00    +0.049 C 
BRANCH  22  23
ATOM     23  C   UNL     1     -29.619 -10.148  17.556  0.00  0.00    +0.125 C 
BRANCH  23  24
ATOM     24  C   UNL     1     -29.444 -10.120  19.041  0.00  0.00    +0.305 C 
ATOM     25  O   UNL     1     -28.950 -11.114  19.638  0.00  0.00    -0.251 OA
BRANCH  24  26
ATOM     26  O   UNL     1     -29.786  -8.977  19.756  0.00  0.00    -0.481 OA
ATOM     27  H   UNL     1     -29.974  -8.104  19.279  0.00  0.00    +0.295 HD
ENDBRANCH  24  26
ENDBRANCH  23  24
ENDBRANCH  22  23
ENDBRANCH   2  22
TORSDOF 8
ENDMDL
MODEL 7
REMARK VINA RESULT:    -3.543      3.487      6.621
REMARK INTER + INTRA:          -6.297
REMARK INTER:                  -5.340
REMARK INTRA:                  -0.957
REMARK UNBOUND:                -1.201
REMARK  Name = 
REMARK  10 active torsions:
REMARK  status: ('A' for Active; 'I' for Inactive)
REMARK    1  A    between atoms: C_1  and  O_2
REMARK    2  A    between atoms: O_2  and  C_3
REMARK    3  A    between atoms: C_6  and  C_7
REMARK    4  A    between atoms: C_8  and  C_9
REMARK    5  A    between atoms: C_8  and  C_14
REMARK    6  A    between atoms: C_9  and  C_10
REMARK    7  A    between atoms: C_10  and  C_11
REMARK    8  A    between atoms: C_11  and  O_13
REMARK    9  A    between atoms: C_23  and  O_25
REMARK   10  A    between atoms: O_25  and  C_26
REMARK                            x       y       z     vdW  Elec       q    Type
REMARK                         _______ _______ _______ _____ _____    ______ ____
ROOT
ATOM      1  C   UNL     1     -31.272 -10.031  17.266  0.00  0.00    +0.017 C 
ATOM      2  C   UNL     1     -31.575 -11.346  17.239  0.00  0.00    -0.014 C 
ENDROOT
BRANCH   2   3
ATOM      3  C   UNL     1     -31.253 -12.158  16.037  0.00  0.00    +0.106 A 
ATOM      4  N   UNL     1     -30.150 -12.947  15.955  0.00  0.00    -0.239 NA
ATOM      5  C   UNL     1     -30.083 -13.587  14.759  0.00  0.00    +0.079 A 
ATOM      6  C   UNL     1     -29.061 -14.463  14.390  0.00  0.00    +0.029 A 
ATOM      7  C   UNL     1     -29.111 -15.061  13.119  0.00  0.00    +0.002 A 
ATOM      8  C   UNL     1     -30.175 -14.779  12.239  0.00  0.00    +0.001 A 
ATOM      9  C   UNL     1     -31.199 -13.896  12.622  0.00  0.00    +0.017 A 
ATOM     10  C   UNL     1     -31.124 -13.318  13.887  0.00  0.00    +0.040 A 
ATOM     11  S   UNL     1     -32.181 -12.241  14.614  0.00  0.00    -0.067 S 
ENDBRANCH   2   3
BRANCH   1  15
ATOM     12  C   UNL     1     -31.940  -7.543  20.696  0.00  0.00    +0.124 A 
ATOM     13  C   UNL     1     -30.784  -8.322  20.596  0.00  0.00    +0.046 A 
ATOM     14  C   UNL     1     -30.568  -9.129  19.479  0.00  0.00    +0.015 A 
ATOM     15  C   UNL     1     -31.501  -9.158  18.433  0.00  0.00    +0.017 A 
ATOM     16  C   UNL     1     -32.679  -8.396  18.524  0.00  0.00    +0.131 A 
ATOM     17  C   UNL     1     -32.891  -7.584  19.657  0.00  0.00    +0.091 A 
BRANCH  12  19
ATOM     18  C   UNL     1     -33.042  -5.679  21.946  0.00  0.00    +0.277 C 
ATOM     19  O   UNL     1     -32.108  -6.747  21.840  0.00  0.00    -0.495 OA
ENDBRANCH  12  19
BRANCH  16  20
ATOM     20  O   UNL     1     -33.608  -8.461  17.471  0.00  0.00    -0.494 OA
ATOM     21  C   UNL     1     -34.929  -8.975  17.588  0.00  0.00    +0.277 C 
ENDBRANCH  16  20
ENDBRANCH   1  15
BRANCH   2  22
ATOM     22  C   UNL     1     -32.127 -12.059  18.460  0.00  0.00    +0.049 C 
BRANCH  22  23
ATOM     23  C   UNL     1     -31.232 -13.238  18.849  0.00  0.00    +0.125 C 
BRANCH  23  24
ATOM     24  C   UNL     1     -30.750 -13.086  20.257  0.00  0.00    +0.305 C 
ATOM     25  O   UNL     1     -31.141 -12.114  20.957  0.00  0.00    -0.251 OA
BRANCH  24  26
ATOM     26  O   UNL     1     -29.904 -14.044  20.806  0.00  0.00    -0.481 OA
ATOM     27  H   UNL     1     -29.594 -13.972  21.768  0.00  0.00    +0.295 HD
ENDBRANCH  24  26
ENDBRANCH  23  24
ENDBRANCH  22  23
ENDBRANCH   2  22
TORSDOF 8
ENDMDL
MODEL 8
REMARK VINA RESULT:    -1.516      3.089      5.702
REMARK INTER + INTRA:          -3.381
REMARK INTER:                  -2.230
REMARK INTRA:                  -1.151
REMARK UNBOUND:                -1.201
REMARK  Name = 
REMARK  10 active torsions:
REMARK  status: ('A' for Active; 'I' for Inactive)
REMARK    1  A    between atoms: C_1  and  O_2
REMARK    2  A    between atoms: O_2  and  C_3
REMARK    3  A    between atoms: C_6  and  C_7
REMARK    4  A    between atoms: C_8  and  C_9
REMARK    5  A    between atoms: C_8  and  C_14
REMARK    6  A    between atoms: C_9  and  C_10
REMARK    7  A    between atoms: C_10  and  C_11
REMARK    8  A    between atoms: C_11  and  O_13
REMARK    9  A    between atoms: C_23  and  O_25
REMARK   10  A    between atoms: O_25  and  C_26
REMARK                            x       y       z     vdW  Elec       q    Type
REMARK                         _______ _______ _______ _____ _____    ______ ____
ROOT
ATOM      1  C   UNL     1     -31.960 -12.459  16.715  0.00  0.00    +0.017 C 
ATOM      2  C   UNL     1     -31.525 -11.322  17.298  0.00  0.00    -0.014 C 
ENDROOT
BRANCH   2   3
ATOM      3  C   UNL     1     -32.271 -10.742  18.444  0.00  0.00    +0.106 A 
ATOM      4  N   UNL     1     -32.766  -9.477  18.436  0.00  0.00    -0.239 NA
ATOM      5  C   UNL     1     -33.407  -9.186  19.597  0.00  0.00    +0.079 A 
ATOM      6  C   UNL     1     -34.015  -7.961  19.876  0.00  0.00    +0.029 A 
ATOM      7  C   UNL     1     -34.648  -7.789  21.120  0.00  0.00    +0.002 A 
ATOM      8  C   UNL     1     -34.665  -8.837  22.062  0.00  0.00    +0.001 A 
ATOM      9  C   UNL     1     -34.050 -10.065  21.770  0.00  0.00    +0.017 A 
ATOM     10  C   UNL     1     -33.432 -10.208  20.531  0.00  0.00    +0.040 A 
ATOM     11  S   UNL     1     -32.626 -11.537  19.906  0.00  0.00    -0.067 S 
ENDBRANCH   2   3
BRANCH   1  15
ATOM     12  C   UNL     1     -29.864 -14.404  13.518  0.00  0.00    +0.124 A 
ATOM     13  C   UNL     1     -29.446 -14.560  14.842  0.00  0.00    +0.046 A 
ATOM     14  C   UNL     1     -30.130 -13.929  15.880  0.00  0.00    +0.015 A 
ATOM     15  C   UNL     1     -31.257 -13.140  15.611  0.00  0.00    +0.017 A 
ATOM     16  C   UNL     1     -31.682 -12.955  14.283  0.00  0.00    +0.131 A 
ATOM     17  C   UNL     1     -30.984 -13.596  13.239  0.00  0.00    +0.091 A 
BRANCH  12  19
ATOM     18  C   UNL     1     -27.727 -14.999  12.361  0.00  0.00    +0.277 C 
ATOM     19  O   UNL     1     -29.142 -15.063  12.511  0.00  0.00    -0.495 OA
ENDBRANCH  12  19
BRANCH  16  20
ATOM     20  O   UNL     1     -32.802 -12.141  14.040  0.00  0.00    -0.494 OA
ATOM     21  C   UNL     1     -33.579 -12.170  12.849  0.00  0.00    +0.277 C 
ENDBRANCH  16  20
ENDBRANCH   1  15
BRANCH   2  22
ATOM     22  C   UNL     1     -30.212 -10.676  16.895  0.00  0.00    +0.049 C 
BRANCH  22  23
ATOM     23  C   UNL     1     -29.389 -10.307  18.132  0.00  0.00    +0.125 C 
BRANCH  23  24
ATOM     24  C   UNL     1     -28.298 -11.306  18.352  0.00  0.00    +0.305 C 
ATOM     25  O   UNL     1     -27.091 -10.949  18.288  0.00  0.00    -0.251 OA
BRANCH  24  26
ATOM     26  O   UNL     1     -28.619 -12.621  18.672  0.00  0.00    -0.481 OA
ATOM     27  H   UNL     1     -28.418 -13.376  18.027  0.00  0.00    +0.295 HD
ENDBRANCH  24  26
ENDBRANCH  23  24
ENDBRANCH  22  23
ENDBRANCH   2  22
TORSDOF 8
ENDMDL
