MODEL 1
REMARK VINA RESULT:    -4.874      0.000      0.000
REMARK INTER + INTRA:          -7.026
REMARK INTER:                  -6.299
REMARK INTRA:                  -0.727
REMARK UNBOUND:                -0.727
REMARK  Name = 
REMARK  7 active torsions:
REMARK  status: ('A' for Active; 'I' for Inactive)
REMARK    1  A    between atoms: C_1  and  C_2
REMARK    2  A    between atoms: C_2  and  C_3
REMARK    3  A    between atoms: C_2  and  N_4
REMARK    4  A    between atoms: C_14  and  C_15
REMARK    5  A    between atoms: C_15  and  C_16
REMARK    6  A    between atoms: C_15  and  S_18
REMARK    7  A    between atoms: S_18  and  C_21
REMARK                            x       y       z     vdW  Elec       q    Type
REMARK                         _______ _______ _______ _____ _____    ______ ____
ROOT
ATOM      1  N   UNL     1     -32.518 -10.287  18.565  0.00  0.00    -0.325 N 
ATOM      2  C   UNL     1     -32.240 -11.010  17.346  0.00  0.00    +0.144 A 
ATOM      3  N   UNL     1     -33.190 -11.069  16.371  0.00  0.00    -0.229 NA
ATOM      4  C   UNL     1     -32.971 -11.690  15.186  0.00  0.00    +0.091 A 
ATOM      5  C   UNL     1     -33.968 -11.731  14.205  0.00  0.00    +0.030 A 
ATOM      6  C   UNL     1     -33.717 -12.367  12.984  0.00  0.00    +0.002 A 
ATOM      7  C   UNL     1     -32.471 -12.959  12.743  0.00  0.00    +0.002 A 
ATOM      8  C   UNL     1     -31.473 -12.921  13.722  0.00  0.00    +0.030 A 
ATOM      9  C   UNL     1     -31.723 -12.287  14.944  0.00  0.00    +0.090 A 
ATOM     10  N   UNL     1     -30.771 -12.242  15.910  0.00  0.00    -0.244 NA
ATOM     11  C   UNL     1     -30.989 -11.641  17.116  0.00  0.00    +0.120 A 
ATOM     12  H   UNL     1     -31.734 -10.026  19.201  0.00  0.00    +0.148 HD
ENDROOT
BRANCH   1  14
ATOM     13  C   UNL     1     -34.190  -8.458  18.461  0.00  0.00    +0.027 C 
ATOM     14  C   UNL     1     -33.855  -9.855  18.996  0.00  0.00    +0.066 C 
ATOM     15  C   UNL     1     -34.009  -9.937  20.519  0.00  0.00    +0.027 C 
ENDBRANCH   1  14
BRANCH  11  16
ATOM     16  C   UNL     1     -29.869 -11.632  18.133  0.00  0.00    +0.289 C 
BRANCH  16  17
ATOM     17  S   UNL     1     -30.179 -12.859  19.398  0.00  0.00    +0.018 S 
ATOM     18  O   UNL     1     -31.127 -12.303  20.424  0.00  0.00    -0.168 OA
ATOM     19  O   UNL     1     -30.799 -14.085  18.791  0.00  0.00    -0.168 OA
BRANCH  17  20
ATOM     20  C   UNL     1     -28.657 -13.300  20.165  0.00  0.00    +0.090 A 
ATOM     21  C   UNL     1     -28.662 -13.888  21.438  0.00  0.00    +0.030 A 
ATOM     22  C   UNL     1     -27.457 -14.257  22.046  0.00  0.00    +0.040 A 
ATOM     23  C   UNL     1     -26.245 -14.047  21.383  0.00  0.00    +0.124 A 
ATOM     24  F   UNL     1     -25.078 -14.407  21.971  0.00  0.00    -0.205 F 
ATOM     25  C   UNL     1     -26.237 -13.468  20.109  0.00  0.00    +0.040 A 
ATOM     26  C   UNL     1     -27.440 -13.099  19.500  0.00  0.00    +0.030 A 
ENDBRANCH  17  20
ENDBRANCH  16  17
BRANCH  16  27
ATOM     27  C   UNL     1     -29.732 -10.309  18.762  0.00  0.00    +0.096 C 
ATOM     28  N   UNL     1     -29.624  -9.268  19.256  0.00  0.00    -0.194 NA
ENDBRANCH  16  27
ENDBRANCH  11  16
TORSDOF 5
ENDMDL
MODEL 2
REMARK VINA RESULT:    -4.186      3.753      6.182
REMARK INTER + INTRA:          -6.137
REMARK INTER:                  -5.361
REMARK INTRA:                  -0.776
REMARK UNBOUND:                -0.727
REMARK  Name = 
REMARK  7 active torsions:
REMARK  status: ('A' for Active; 'I' for Inactive)
REMARK    1  A    between atoms: C_1  and  C_2
REMARK    2  A    between atoms: C_2  and  C_3
REMARK    3  A    between atoms: C_2  and  N_4
REMARK    4  A    between atoms: C_14  and  C_15
REMARK    5  A    between atoms: C_15  and  C_16
REMARK    6  A    between atoms: C_15  and  S_18
REMARK    7  A    between atoms: S_18  and  C_21
REMARK                            x       y       z     vdW  Elec       q    Type
REMARK                         _______ _______ _______ _____ _____    ______ ____
ROOT
ATOM      1  N   UNL     1     -33.707  -9.882  15.572  0.00  0.00    -0.325 N 
ATOM      2  C   UNL     1     -33.301  -9.214  16.787  0.00  0.00    +0.144 A 
ATOM      3  N   UNL     1     -34.168  -8.367  17.408  0.00  0.00    -0.229 NA
ATOM      4  C   UNL     1     -33.862  -7.748  18.574  0.00  0.00    +0.091 A 
ATOM      5  C   UNL     1     -34.777  -6.885  19.187  0.00  0.00    +0.030 A 
ATOM      6  C   UNL     1     -34.447  -6.266  20.398  0.00  0.00    +0.002 A 
ATOM      7  C   UNL     1     -33.205  -6.511  20.997  0.00  0.00    +0.002 A 
ATOM      8  C   UNL     1     -32.288  -7.374  20.386  0.00  0.00    +0.030 A 
ATOM      9  C   UNL     1     -32.616  -7.992  19.175  0.00  0.00    +0.090 A 
ATOM     10  N   UNL     1     -31.740  -8.828  18.564  0.00  0.00    -0.244 NA
ATOM     11  C   UNL     1     -32.027  -9.436  17.376  0.00  0.00    +0.120 A 
ATOM     12  H   UNL     1     -33.166 -10.704  15.228  0.00  0.00    +0.148 HD
ENDROOT
BRANCH   1  14
ATOM     13  C   UNL     1     -34.958 -10.349  13.482  0.00  0.00    +0.027 C 
ATOM     14  C   UNL     1     -34.871  -9.505  14.758  0.00  0.00    +0.066 C 
ATOM     15  C   UNL     1     -34.881  -8.003  14.453  0.00  0.00    +0.027 C 
ENDBRANCH   1  14
BRANCH  11  16
ATOM     16  C   UNL     1     -30.994 -10.359  16.766  0.00  0.00    +0.289 C 
BRANCH  16  17
ATOM     17  S   UNL     1     -31.520 -12.061  16.930  0.00  0.00    +0.018 S 
ATOM     18  O   UNL     1     -30.862 -12.684  18.131  0.00  0.00    -0.168 OA
ATOM     19  O   UNL     1     -33.010 -12.129  17.113  0.00  0.00    -0.168 OA
BRANCH  17  20
ATOM     20  C   UNL     1     -31.075 -12.950  15.476  0.00  0.00    +0.090 A 
ATOM     21  C   UNL     1     -31.784 -12.739  14.285  0.00  0.00    +0.030 A 
ATOM     22  C   UNL     1     -31.424 -13.429  13.123  0.00  0.00    +0.040 A 
ATOM     23  C   UNL     1     -30.352 -14.325  13.143  0.00  0.00    +0.124 A 
ATOM     24  F   UNL     1     -30.002 -14.991  12.016  0.00  0.00    -0.205 F 
ATOM     25  C   UNL     1     -29.637 -14.532  14.328  0.00  0.00    +0.040 A 
ATOM     26  C   UNL     1     -29.995 -13.843  15.491  0.00  0.00    +0.030 A 
ENDBRANCH  17  20
ENDBRANCH  16  17
BRANCH  16  27
ATOM     27  C   UNL     1     -29.683 -10.190  17.412  0.00  0.00    +0.096 C 
ATOM     28  N   UNL     1     -28.652 -10.058  17.920  0.00  0.00    -0.194 NA
ENDBRANCH  16  27
ENDBRANCH  11  16
TORSDOF 5
ENDMDL
MODEL 3
REMARK VINA RESULT:    -4.158      2.740      4.254
REMARK INTER + INTRA:          -6.100
REMARK INTER:                  -4.756
REMARK INTRA:                  -1.344
REMARK UNBOUND:                -0.727
REMARK  Name = 
REMARK  7 active torsions:
REMARK  status: ('A' for Active; 'I' for Inactive)
REMARK    1  A    between atoms: C_1  and  C_2
REMARK    2  A    between atoms: C_2  and  C_3
REMARK    3  A    between atoms: C_2  and  N_4
REMARK    4  A    between atoms: C_14  and  C_15
REMARK    5  A    between atoms: C_15  and  C_16
REMARK    6  A    between atoms: C_15  and  S_18
REMARK    7  A    between atoms: S_18  and  C_21
REMARK                            x       y       z     vdW  Elec       q    Type
REMARK                         _______ _______ _______ _____ _____    ______ ____
ROOT
ATOM      1  N   UNL     1     -30.391 -11.138  17.130  0.00  0.00    -0.325 N 
ATOM      2  C   UNL     1     -31.316 -11.277  16.029  0.00  0.00    +0.144 A 
ATOM      3  N   UNL     1     -31.077 -12.210  15.066  0.00  0.00    -0.229 NA
ATOM      4  C   UNL     1     -31.932 -12.419  14.035  0.00  0.00    +0.091 A 
ATOM      5  C   UNL     1     -31.656 -13.388  13.064  0.00  0.00    +0.030 A 
ATOM      6  C   UNL     1     -32.558 -13.597  12.014  0.00  0.00    +0.002 A 
ATOM      7  C   UNL     1     -33.735 -12.841  11.938  0.00  0.00    +0.002 A 
ATOM      8  C   UNL     1     -34.012 -11.872  12.907  0.00  0.00    +0.030 A 
ATOM      9  C   UNL     1     -33.110 -11.660  13.956  0.00  0.00    +0.090 A 
ATOM     10  N   UNL     1     -33.357 -10.722  14.904  0.00  0.00    -0.244 NA
ATOM     11  C   UNL     1     -32.491 -10.485  15.932  0.00  0.00    +0.120 A 
ATOM     12  H   UNL     1     -30.679 -10.617  17.985  0.00  0.00    +0.148 HD
ENDROOT
BRANCH   1  14
ATOM     13  C   UNL     1     -29.063 -13.202  17.494  0.00  0.00    +0.027 C 
ATOM     14  C   UNL     1     -29.036 -11.705  17.161  0.00  0.00    +0.066 C 
ATOM     15  C   UNL     1     -28.120 -10.924  18.110  0.00  0.00    +0.027 C 
ENDBRANCH   1  14
BRANCH  11  16
ATOM     16  C   UNL     1     -32.849  -9.423  16.950  0.00  0.00    +0.289 C 
BRANCH  16  17
ATOM     17  S   UNL     1     -33.610 -10.179  18.382  0.00  0.00    +0.018 S 
ATOM     18  O   UNL     1     -34.505  -9.183  19.067  0.00  0.00    -0.168 OA
ATOM     19  O   UNL     1     -34.441 -11.360  17.966  0.00  0.00    -0.168 OA
BRANCH  17  20
ATOM     20  C   UNL     1     -32.354 -10.717  19.492  0.00  0.00    +0.090 A 
ATOM     21  C   UNL     1     -32.144 -12.088  19.697  0.00  0.00    +0.030 A 
ATOM     22  C   UNL     1     -31.136 -12.522  20.564  0.00  0.00    +0.040 A 
ATOM     23  C   UNL     1     -30.330 -11.591  21.224  0.00  0.00    +0.124 A 
ATOM     24  F   UNL     1     -29.352 -12.012  22.062  0.00  0.00    -0.205 F 
ATOM     25  C   UNL     1     -30.532 -10.222  21.016  0.00  0.00    +0.040 A 
ATOM     26  C   UNL     1     -31.539  -9.786  20.150  0.00  0.00    +0.030 A 
ENDBRANCH  17  20
ENDBRANCH  16  17
BRANCH  16  27
ATOM     27  C   UNL     1     -33.768  -8.426  16.379  0.00  0.00    +0.096 C 
ATOM     28  N   UNL     1     -34.491  -7.643  15.930  0.00  0.00    -0.194 NA
ENDBRANCH  16  27
ENDBRANCH  11  16
TORSDOF 5
ENDMDL
MODEL 4
REMARK VINA RESULT:    -4.149      2.182      2.949
REMARK INTER + INTRA:          -6.089
REMARK INTER:                  -5.070
REMARK INTRA:                  -1.018
REMARK UNBOUND:                -0.727
REMARK  Name = 
REMARK  7 active torsions:
REMARK  status: ('A' for Active; 'I' for Inactive)
REMARK    1  A    between atoms: C_1  and  C_2
REMARK    2  A    between atoms: C_2  and  C_3
REMARK    3  A    between atoms: C_2  and  N_4
REMARK    4  A    between atoms: C_14  and  C_15
REMARK    5  A    between atoms: C_15  and  C_16
REMARK    6  A    between atoms: C_15  and  S_18
REMARK    7  A    between atoms: S_18  and  C_21
REMARK                            x       y       z     vdW  Elec       q    Type
REMARK                         _______ _______ _______ _____ _____    ______ ____
ROOT
ATOM      1  N   UNL     1     -32.337  -8.337  19.086  0.00  0.00    -0.325 N 
ATOM      2  C   UNL     1     -32.756  -9.091  17.927  0.00  0.00    +0.144 A 
ATOM      3  N   UNL     1     -33.520  -8.488  16.975  0.00  0.00    -0.229 NA
ATOM      4  C   UNL     1     -33.903  -9.130  15.844  0.00  0.00    +0.091 A 
ATOM      5  C   UNL     1     -34.687  -8.480  14.885  0.00  0.00    +0.030 A 
ATOM      6  C   UNL     1     -35.062  -9.155  13.718  0.00  0.00    +0.002 A 
ATOM      7  C   UNL     1     -34.652 -10.478  13.509  0.00  0.00    +0.002 A 
ATOM      8  C   UNL     1     -33.868 -11.130  14.467  0.00  0.00    +0.030 A 
ATOM      9  C   UNL     1     -33.494 -10.457  15.635  0.00  0.00    +0.090 A 
ATOM     10  N   UNL     1     -32.739 -11.072  16.579  0.00  0.00    -0.244 NA
ATOM     11  C   UNL     1     -32.369 -10.444  17.733  0.00  0.00    +0.120 A 
ATOM     12  H   UNL     1     -31.564  -8.697  19.686  0.00  0.00    +0.148 HD
ENDROOT
BRANCH   1  14
ATOM     13  C   UNL     1     -31.883  -6.190  20.243  0.00  0.00    +0.027 C 
ATOM     14  C   UNL     1     -32.912  -7.049  19.498  0.00  0.00    +0.066 C 
ATOM     15  C   UNL     1     -34.196  -7.241  20.314  0.00  0.00    +0.027 C 
ENDBRANCH   1  14
BRANCH  11  16
ATOM     16  C   UNL     1     -31.520 -11.204  18.730  0.00  0.00    +0.289 C 
BRANCH  16  17
ATOM     17  S   UNL     1     -29.848 -10.567  18.722  0.00  0.00    +0.018 S 
ATOM     18  O   UNL     1     -29.365 -10.424  17.305  0.00  0.00    -0.168 OA
ATOM     19  O   UNL     1     -29.803  -9.216  19.379  0.00  0.00    -0.168 OA
BRANCH  17  20
ATOM     20  C   UNL     1     -28.800 -11.673  19.603  0.00  0.00    +0.090 A 
ATOM     21  C   UNL     1     -27.641 -12.173  18.993  0.00  0.00    +0.030 A 
ATOM     22  C   UNL     1     -26.795 -13.039  19.694  0.00  0.00    +0.040 A 
ATOM     23  C   UNL     1     -27.099 -13.403  21.008  0.00  0.00    +0.124 A 
ATOM     24  F   UNL     1     -26.278 -14.240  21.688  0.00  0.00    -0.205 F 
ATOM     25  C   UNL     1     -28.250 -12.900  21.624  0.00  0.00    +0.040 A 
ATOM     26  C   UNL     1     -29.097 -12.035  20.924  0.00  0.00    +0.030 A 
ENDBRANCH  17  20
ENDBRANCH  16  17
BRANCH  16  27
ATOM     27  C   UNL     1     -31.494 -12.642  18.421  0.00  0.00    +0.096 C 
ATOM     28  N   UNL     1     -31.474 -13.773  18.177  0.00  0.00    -0.194 NA
ENDBRANCH  16  27
ENDBRANCH  11  16
TORSDOF 5
ENDMDL
MODEL 5
REMARK VINA RESULT:    -4.043      2.864      6.076
REMARK INTER + INTRA:          -5.952
REMARK INTER:                  -5.148
REMARK INTRA:                  -0.804
REMARK UNBOUND:                -0.727
REMARK  Name = 
REMARK  7 active torsions:
REMARK  status: ('A' for Active; 'I' for Inactive)
REMARK    1  A    between atoms: C_1  and  C_2
REMARK    2  A    between atoms: C_2  and  C_3
REMARK    3  A    between atoms: C_2  and  N_4
REMARK    4  A    between atoms: C_14  and  C_15
REMARK    5  A    between atoms: C_15  and  C_16
REMARK    6  A    between atoms: C_15  and  S_18
REMARK    7  A    between atoms: S_18  and  C_21
REMARK                            x       y       z     vdW  Elec       q    Type
REMARK                         _______ _______ _______ _____ _____    ______ ____
ROOT
ATOM      1  N   UNL     1     -32.799 -10.751  20.435  0.00  0.00    -0.325 N 
ATOM      2  C   UNL     1     -31.526 -11.336  20.085  0.00  0.00    +0.144 A 
ATOM      3  N   UNL     1     -30.689 -11.759  21.073  0.00  0.00    -0.229 NA
ATOM      4  C   UNL     1     -29.502 -12.358  20.807  0.00  0.00    +0.091 A 
ATOM      5  C   UNL     1     -28.666 -12.782  21.845  0.00  0.00    +0.030 A 
ATOM      6  C   UNL     1     -27.451 -13.410  21.549  0.00  0.00    +0.002 A 
ATOM      7  C   UNL     1     -27.073 -13.616  20.216  0.00  0.00    +0.002 A 
ATOM      8  C   UNL     1     -27.907 -13.192  19.176  0.00  0.00    +0.030 A 
ATOM      9  C   UNL     1     -29.121 -12.563  19.470  0.00  0.00    +0.090 A 
ATOM     10  N   UNL     1     -29.942 -12.140  18.477  0.00  0.00    -0.244 NA
ATOM     11  C   UNL     1     -31.127 -11.512  18.733  0.00  0.00    +0.120 A 
ATOM     12  H   UNL     1     -33.541 -10.654  19.708  0.00  0.00    +0.148 HD
ENDROOT
BRANCH   1  14
ATOM     13  C   UNL     1     -34.655 -10.502  22.062  0.00  0.00    +0.027 C 
ATOM     14  C   UNL     1     -33.164 -10.282  21.779  0.00  0.00    +0.066 C 
ATOM     15  C   UNL     1     -32.749  -8.822  21.997  0.00  0.00    +0.027 C 
ENDBRANCH   1  14
BRANCH  11  16
ATOM     16  C   UNL     1     -31.985 -11.079  17.564  0.00  0.00    +0.289 C 
BRANCH  16  17
ATOM     17  S   UNL     1     -32.762 -12.504  16.813  0.00  0.00    +0.018 S 
ATOM     18  O   UNL     1     -32.930 -13.592  17.838  0.00  0.00    -0.168 OA
ATOM     19  O   UNL     1     -34.119 -12.137  16.281  0.00  0.00    -0.168 OA
BRANCH  17  20
ATOM     20  C   UNL     1     -31.759 -13.082  15.486  0.00  0.00    +0.090 A 
ATOM     21  C   UNL     1     -30.637 -13.879  15.755  0.00  0.00    +0.030 A 
ATOM     22  C   UNL     1     -29.846 -14.355  14.704  0.00  0.00    +0.040 A 
ATOM     23  C   UNL     1     -30.176 -14.045  13.382  0.00  0.00    +0.124 A 
ATOM     24  F   UNL     1     -29.411 -14.509  12.365  0.00  0.00    -0.205 F 
ATOM     25  C   UNL     1     -31.300 -13.257  13.110  0.00  0.00    +0.040 A 
ATOM     26  C   UNL     1     -32.091 -12.780  14.159  0.00  0.00    +0.030 A 
ENDBRANCH  17  20
ENDBRANCH  16  17
BRANCH  16  27
ATOM     27  C   UNL     1     -31.186 -10.370  16.552  0.00  0.00    +0.096 C 
ATOM     28  N   UNL     1     -30.557  -9.813  15.757  0.00  0.00    -0.194 NA
ENDBRANCH  16  27
ENDBRANCH  11  16
TORSDOF 5
ENDMDL
MODEL 6
REMARK VINA RESULT:    -3.989      2.160      3.292
REMARK INTER + INTRA:          -5.882
REMARK INTER:                  -6.508
REMARK INTRA:                   0.626
REMARK UNBOUND:                -0.727
REMARK  Name = 
REMARK  7 active torsions:
REMARK  status: ('A' for Active; 'I' for Inactive)
REMARK    1  A    between atoms: C_1  and  C_2
REMARK    2  A    between atoms: C_2  and  C_3
REMARK    3  A    between atoms: C_2  and  N_4
REMARK    4  A    between atoms: C_14  and  C_15
REMARK    5  A    between atoms: C_15  and  C_16
REMARK    6  A    between atoms: C_15  and  S_18
REMARK    7  A    between atoms: S_18  and  C_21
REMARK                            x       y       z     vdW  Elec       q    Type
REMARK                         _______ _______ _______ _____ _____    ______ ____
ROOT
ATOM      1  N   UNL     1     -33.271 -10.323  15.870  0.00  0.00    -0.325 N 
ATOM      2  C   UNL     1     -32.268 -11.362  15.825  0.00  0.00    +0.144 A 
ATOM      3  N   UNL     1     -32.136 -12.118  14.700  0.00  0.00    -0.229 NA
ATOM      4  C   UNL     1     -31.184 -13.075  14.580  0.00  0.00    +0.091 A 
ATOM      5  C   UNL     1     -31.075 -13.832  13.408  0.00  0.00    +0.030 A 
ATOM      6  C   UNL     1     -30.077 -14.807  13.300  0.00  0.00    +0.002 A 
ATOM      7  C   UNL     1     -29.187 -15.023  14.360  0.00  0.00    +0.002 A 
ATOM      8  C   UNL     1     -29.294 -14.267  15.532  0.00  0.00    +0.030 A 
ATOM      9  C   UNL     1     -30.293 -13.293  15.643  0.00  0.00    +0.090 A 
ATOM     10  N   UNL     1     -30.418 -12.553  16.772  0.00  0.00    -0.244 NA
ATOM     11  C   UNL     1     -31.389 -11.605  16.914  0.00  0.00    +0.120 A 
ATOM     12  H   UNL     1     -33.221  -9.588  16.608  0.00  0.00    +0.148 HD
ENDROOT
BRANCH   1  14
ATOM     13  C   UNL     1     -34.132 -11.006  13.646  0.00  0.00    +0.027 C 
ATOM     14  C   UNL     1     -34.384 -10.192  14.921  0.00  0.00    +0.066 C 
ATOM     15  C   UNL     1     -34.690  -8.722  14.611  0.00  0.00    +0.027 C 
ENDBRANCH   1  14
BRANCH  11  16
ATOM     16  C   UNL     1     -31.452 -10.820  18.207  0.00  0.00    +0.289 C 
BRANCH  16  17
ATOM     17  S   UNL     1     -29.813 -10.278  18.675  0.00  0.00    +0.018 S 
ATOM     18  O   UNL     1     -28.981 -10.050  17.443  0.00  0.00    -0.168 OA
ATOM     19  O   UNL     1     -29.891  -8.988  19.442  0.00  0.00    -0.168 OA
BRANCH  17  20
ATOM     20  C   UNL     1     -29.060 -11.507  19.686  0.00  0.00    +0.090 A 
ATOM     21  C   UNL     1     -28.260 -12.499  19.101  0.00  0.00    +0.030 A 
ATOM     22  C   UNL     1     -27.645 -13.468  19.901  0.00  0.00    +0.040 A 
ATOM     23  C   UNL     1     -27.822 -13.447  21.287  0.00  0.00    +0.124 A 
ATOM     24  F   UNL     1     -27.224 -14.384  22.062  0.00  0.00    -0.205 F 
ATOM     25  C   UNL     1     -28.613 -12.454  21.875  0.00  0.00    +0.040 A 
ATOM     26  C   UNL     1     -29.228 -11.484  21.078  0.00  0.00    +0.030 A 
ENDBRANCH  17  20
ENDBRANCH  16  17
BRANCH  16  27
ATOM     27  C   UNL     1     -32.026 -11.629  19.293  0.00  0.00    +0.096 C 
ATOM     28  N   UNL     1     -32.478 -12.265  20.147  0.00  0.00    -0.194 NA
ENDBRANCH  16  27
ENDBRANCH  11  16
TORSDOF 5
ENDMDL
MODEL 7
REMARK VINA RESULT:    -3.293      3.469      7.046
REMARK INTER + INTRA:          -4.982
REMARK INTER:                  -3.997
REMARK INTRA:                  -0.985
REMARK UNBOUND:                -0.727
REMARK  Name = 
REMARK  7 active torsions:
REMARK  status: ('A' for Active; 'I' for Inactive)
REMARK    1  A    between atoms: C_1  and  C_2
REMARK    2  A    between atoms: C_2  and  C_3
REMARK    3  A    between atoms: C_2  and  N_4
REMARK    4  A    between atoms: C_14  and  C_15
REMARK    5  A    between atoms: C_15  and  C_16
REMARK    6  A    between atoms: C_15  and  S_18
REMARK    7  A    between atoms: S_18  and  C_21
REMARK                            x       y       z     vdW  Elec       q    Type
REMARK                         _______ _______ _______ _____ _____    ______ ____
ROOT
ATOM      1  N   UNL     1     -29.854 -11.228  18.865  0.00  0.00    -0.325 N 
ATOM      2  C   UNL     1     -30.671 -10.065  19.128  0.00  0.00    +0.144 A 
ATOM      3  N   UNL     1     -30.255  -9.149  20.045  0.00  0.00    -0.229 NA
ATOM      4  C   UNL     1     -30.953  -8.015  20.302  0.00  0.00    +0.091 A 
ATOM      5  C   UNL     1     -30.496  -7.093  21.249  0.00  0.00    +0.030 A 
ATOM      6  C   UNL     1     -31.226  -5.923  21.490  0.00  0.00    +0.002 A 
ATOM      7  C   UNL     1     -32.408  -5.674  20.782  0.00  0.00    +0.002 A 
ATOM      8  C   UNL     1     -32.868  -6.595  19.835  0.00  0.00    +0.030 A 
ATOM      9  C   UNL     1     -32.140  -7.766  19.594  0.00  0.00    +0.090 A 
ATOM     10  N   UNL     1     -32.570  -8.675  18.683  0.00  0.00    -0.244 NA
ATOM     11  C   UNL     1     -31.889  -9.831  18.436  0.00  0.00    +0.120 A 
ATOM     12  H   UNL     1     -30.027 -11.798  18.009  0.00  0.00    +0.148 HD
ENDROOT
BRANCH   1  14
ATOM     13  C   UNL     1     -27.586 -12.231  18.879  0.00  0.00    +0.027 C 
ATOM     14  C   UNL     1     -28.748 -11.684  19.716  0.00  0.00    +0.066 C 
ATOM     15  C   UNL     1     -29.224 -12.696  20.765  0.00  0.00    +0.027 C 
ENDBRANCH   1  14
BRANCH  11  16
ATOM     16  C   UNL     1     -32.437 -10.787  17.398  0.00  0.00    +0.289 C 
BRANCH  16  17
ATOM     17  S   UNL     1     -31.908 -10.286  15.764  0.00  0.00    +0.018 S 
ATOM     18  O   UNL     1     -32.997  -9.491  15.098  0.00  0.00    -0.168 OA
ATOM     19  O   UNL     1     -30.678  -9.426  15.857  0.00  0.00    -0.168 OA
BRANCH  17  20
ATOM     20  C   UNL     1     -31.541 -11.718  14.808  0.00  0.00    +0.090 A 
ATOM     21  C   UNL     1     -32.088 -11.860  13.524  0.00  0.00    +0.030 A 
ATOM     22  C   UNL     1     -31.786 -12.986  12.753  0.00  0.00    +0.040 A 
ATOM     23  C   UNL     1     -30.933 -13.972  13.256  0.00  0.00    +0.124 A 
ATOM     24  F   UNL     1     -30.639 -15.063  12.507  0.00  0.00    -0.205 F 
ATOM     25  C   UNL     1     -30.379 -13.830  14.532  0.00  0.00    +0.040 A 
ATOM     26  C   UNL     1     -30.679 -12.705  15.306  0.00  0.00    +0.030 A 
ENDBRANCH  17  20
ENDBRANCH  16  17
BRANCH  16  27
ATOM     27  C   UNL     1     -33.907 -10.833  17.441  0.00  0.00    +0.096 C 
ATOM     28  N   UNL     1     -35.062 -10.869  17.474  0.00  0.00    -0.194 NA
ENDBRANCH  16  27
ENDBRANCH  11  16
TORSDOF 5
ENDMDL
