MODEL 1
REMARK VINA RESULT:    -5.805      0.000      0.000
REMARK INTER + INTRA:         -10.741
REMARK INTER:                  -8.350
REMARK INTRA:                  -2.391
REMARK UNBOUND:                -2.391
REMARK  Name = 
REMARK  9 active torsions:
REMARK  status: ('A' for Active; 'I' for Inactive)
REMARK    1  A    between atoms: C_1  and  C_2
REMARK    2  A    between atoms: C_5  and  C_8
REMARK    3  A    between atoms: C_8  and  N_9
REMARK    4  A    between atoms: C_10  and  C_12
REMARK    5  A    between atoms: C_17  and  N_18
REMARK    6  A    between atoms: N_18  and  S_19
REMARK    7  A    between atoms: S_19  and  C_22
REMARK    8  A    between atoms: C_25  and  C_28
REMARK    9  A    between atoms: C_28  and  O_30
REMARK                            x       y       z     vdW  Elec       q    Type
REMARK                         _______ _______ _______ _____ _____    ______ ____
ROOT
ATOM      1  C   UNL     1     -34.184 -10.166  16.252  0.00  0.00    +0.059 A 
ATOM      2  C   UNL     1     -34.178  -9.528  14.999  0.00  0.00    +0.015 A 
ATOM      3  C   UNL     1     -34.576  -8.196  14.879  0.00  0.00    +0.001 A 
ATOM      4  C   UNL     1     -34.978  -7.482  16.007  0.00  0.00    +0.002 A 
ATOM      5  C   UNL     1     -34.975  -8.093  17.261  0.00  0.00    +0.025 A 
ATOM      6  C   UNL     1     -34.581  -9.437  17.402  0.00  0.00    +0.060 A 
ENDROOT
BRANCH   1   8
ATOM      7  N   UNL     1     -32.496 -12.024  16.576  0.00  0.00    -0.307 N 
ATOM      8  C   UNL     1     -33.845 -11.604  16.324  0.00  0.00    +0.246 C 
ATOM      9  O   UNL     1     -34.746 -12.466  16.136  0.00  0.00    -0.270 OA
ATOM     10  H   UNL     1     -31.755 -11.305  16.743  0.00  0.00    +0.149 HD
BRANCH   7  11
ATOM     11  C   UNL     1     -32.120 -13.432  16.673  0.00  0.00    +0.139 C 
BRANCH  11  16
ATOM     12  C   UNL     1     -28.196 -14.783  12.592  0.00  0.00    +0.044 C 
ATOM     13  C   UNL     1     -29.225 -14.472  13.638  0.00  0.00    -0.050 A 
ATOM     14  C   UNL     1     -30.440 -13.872  13.277  0.00  0.00    +0.003 A 
ATOM     15  C   UNL     1     -31.378 -13.530  14.257  0.00  0.00    +0.005 A 
ATOM     16  C   UNL     1     -31.106 -13.772  15.613  0.00  0.00    -0.030 A 
ATOM     17  C   UNL     1     -29.889 -14.371  15.973  0.00  0.00    +0.005 A 
ATOM     18  C   UNL     1     -28.949 -14.707  14.993  0.00  0.00    +0.003 A 
ENDBRANCH  11  16
ENDBRANCH   7  11
ENDBRANCH   1   8
BRANCH   6  19
ATOM     19  N   UNL     1     -34.521 -10.037  18.708  0.00  0.00    -0.216 N 
ATOM     20  H   UNL     1     -35.239 -10.740  18.993  0.00  0.00    +0.174 HD
BRANCH  19  21
ATOM     21  S   UNL     1     -33.360  -9.566  19.907  0.00  0.00    +0.072 S 
ATOM     22  O   UNL     1     -33.267  -8.066  19.947  0.00  0.00    -0.150 OA
ATOM     23  O   UNL     1     -33.813 -10.050  21.255  0.00  0.00    -0.150 OA
BRANCH  21  24
ATOM     24  C   UNL     1     -31.795 -10.278  19.532  0.00  0.00    +0.109 A 
ATOM     25  C   UNL     1     -31.442 -11.509  20.098  0.00  0.00    +0.029 A 
ATOM     26  C   UNL     1     -30.204 -12.090  19.807  0.00  0.00    +0.017 A 
ATOM     27  C   UNL     1     -29.300 -11.445  18.943  0.00  0.00    +0.059 A 
ATOM     28  C   UNL     1     -29.662 -10.210  18.375  0.00  0.00    +0.017 A 
ATOM     29  C   UNL     1     -30.901  -9.631  18.668  0.00  0.00    +0.029 A 
BRANCH  27  30
ATOM     30  C   UNL     1     -27.993 -12.065  18.637  0.00  0.00    +0.337 C 
ATOM     31  O   UNL     1     -26.951 -11.358  18.569  0.00  0.00    -0.245 OA
BRANCH  30  32
ATOM     32  O   UNL     1     -27.902 -13.439  18.421  0.00  0.00    -0.477 OA
ATOM     33  H   UNL     1     -28.149 -14.099  19.150  0.00  0.00    +0.295 HD
ENDBRANCH  30  32
ENDBRANCH  27  30
ENDBRANCH  21  24
ENDBRANCH  19  21
ENDBRANCH   6  19
TORSDOF 8
ENDMDL
MODEL 2
REMARK VINA RESULT:    -5.606      2.842      6.916
REMARK INTER + INTRA:         -10.455
REMARK INTER:                  -7.156
REMARK INTRA:                  -3.299
REMARK UNBOUND:                -2.391
REMARK  Name = 
REMARK  9 active torsions:
REMARK  status: ('A' for Active; 'I' for Inactive)
REMARK    1  A    between atoms: C_1  and  C_2
REMARK    2  A    between atoms: C_5  and  C_8
REMARK    3  A    between atoms: C_8  and  N_9
REMARK    4  A    between atoms: C_10  and  C_12
REMARK    5  A    between atoms: C_17  and  N_18
REMARK    6  A    between atoms: N_18  and  S_19
REMARK    7  A    between atoms: S_19  and  C_22
REMARK    8  A    between atoms: C_25  and  C_28
REMARK    9  A    between atoms: C_28  and  O_30
REMARK                            x       y       z     vdW  Elec       q    Type
REMARK                         _______ _______ _______ _____ _____    ______ ____
ROOT
ATOM      1  C   UNL     1     -29.729 -14.527  14.737  0.00  0.00    +0.059 A 
ATOM      2  C   UNL     1     -28.333 -14.690  14.730  0.00  0.00    +0.015 A 
ATOM      3  C   UNL     1     -27.644 -14.863  13.528  0.00  0.00    +0.001 A 
ATOM      4  C   UNL     1     -28.339 -14.868  12.320  0.00  0.00    +0.002 A 
ATOM      5  C   UNL     1     -29.722 -14.691  12.306  0.00  0.00    +0.025 A 
ATOM      6  C   UNL     1     -30.435 -14.519  13.507  0.00  0.00    +0.060 A 
ENDROOT
BRANCH   1   8
ATOM      7  N   UNL     1     -29.717 -14.090  17.231  0.00  0.00    -0.307 N 
ATOM      8  C   UNL     1     -30.432 -14.440  16.036  0.00  0.00    +0.246 C 
ATOM      9  O   UNL     1     -31.664 -14.700  16.095  0.00  0.00    -0.270 OA
ATOM     10  H   UNL     1     -28.699 -13.863  17.174  0.00  0.00    +0.149 HD
BRANCH   7  11
ATOM     11  C   UNL     1     -30.375 -13.975  18.531  0.00  0.00    +0.139 C 
BRANCH  11  16
ATOM     12  C   UNL     1     -30.674  -8.402  20.180  0.00  0.00    +0.044 C 
ATOM     13  C   UNL     1     -30.570  -9.845  19.786  0.00  0.00    -0.050 A 
ATOM     14  C   UNL     1     -29.596 -10.257  18.864  0.00  0.00    +0.003 A 
ATOM     15  C   UNL     1     -29.532 -11.592  18.452  0.00  0.00    +0.005 A 
ATOM     16  C   UNL     1     -30.452 -12.531  18.947  0.00  0.00    -0.030 A 
ATOM     17  C   UNL     1     -31.427 -12.118  19.867  0.00  0.00    +0.005 A 
ATOM     18  C   UNL     1     -31.495 -10.781  20.274  0.00  0.00    +0.003 A 
ENDBRANCH  11  16
ENDBRANCH   7  11
ENDBRANCH   1   8
BRANCH   6  19
ATOM     19  N   UNL     1     -31.852 -14.273  13.476  0.00  0.00    -0.216 N 
ATOM     20  H   UNL     1     -32.520 -15.035  13.732  0.00  0.00    +0.174 HD
BRANCH  19  21
ATOM     21  S   UNL     1     -32.535 -12.781  12.917  0.00  0.00    +0.072 S 
ATOM     22  O   UNL     1     -31.592 -12.136  11.942  0.00  0.00    -0.150 OA
ATOM     23  O   UNL     1     -33.831 -13.061  12.211  0.00  0.00    -0.150 OA
BRANCH  21  24
ATOM     24  C   UNL     1     -32.841 -11.717  14.285  0.00  0.00    +0.109 A 
ATOM     25  C   UNL     1     -34.130 -11.639  14.827  0.00  0.00    +0.029 A 
ATOM     26  C   UNL     1     -34.388 -10.801  15.916  0.00  0.00    +0.017 A 
ATOM     27  C   UNL     1     -33.356 -10.029  16.481  0.00  0.00    +0.059 A 
ATOM     28  C   UNL     1     -32.063 -10.114  15.934  0.00  0.00    +0.017 A 
ATOM     29  C   UNL     1     -31.808 -10.952  14.844  0.00  0.00    +0.029 A 
BRANCH  27  30
ATOM     30  C   UNL     1     -33.635  -9.146  17.634  0.00  0.00    +0.337 C 
ATOM     31  O   UNL     1     -34.362  -9.546  18.584  0.00  0.00    -0.245 OA
BRANCH  30  32
ATOM     32  O   UNL     1     -33.095  -7.862  17.681  0.00  0.00    -0.477 OA
ATOM     33  H   UNL     1     -33.685  -7.044  17.579  0.00  0.00    +0.295 HD
ENDBRANCH  30  32
ENDBRANCH  27  30
ENDBRANCH  21  24
ENDBRANCH  19  21
ENDBRANCH   6  19
TORSDOF 8
ENDMDL
MODEL 3
REMARK VINA RESULT:    -5.589      2.339      6.388
REMARK INTER + INTRA:         -10.430
REMARK INTER:                  -6.495
REMARK INTRA:                  -3.935
REMARK UNBOUND:                -2.391
REMARK  Name = 
REMARK  9 active torsions:
REMARK  status: ('A' for Active; 'I' for Inactive)
REMARK    1  A    between atoms: C_1  and  C_2
REMARK    2  A    between atoms: C_5  and  C_8
REMARK    3  A    between atoms: C_8  and  N_9
REMARK    4  A    between atoms: C_10  and  C_12
REMARK    5  A    between atoms: C_17  and  N_18
REMARK    6  A    between atoms: N_18  and  S_19
REMARK    7  A    between atoms: S_19  and  C_22
REMARK    8  A    between atoms: C_25  and  C_28
REMARK    9  A    between atoms: C_28  and  O_30
REMARK                            x       y       z     vdW  Elec       q    Type
REMARK                         _______ _______ _______ _____ _____    ______ ____
ROOT
ATOM      1  C   UNL     1     -29.791 -14.207  15.404  0.00  0.00    +0.059 A 
ATOM      2  C   UNL     1     -28.654 -14.667  14.718  0.00  0.00    +0.015 A 
ATOM      3  C   UNL     1     -28.671 -14.812  13.330  0.00  0.00    +0.001 A 
ATOM      4  C   UNL     1     -29.822 -14.495  12.609  0.00  0.00    +0.002 A 
ATOM      5  C   UNL     1     -30.955 -14.022  13.271  0.00  0.00    +0.025 A 
ATOM      6  C   UNL     1     -30.958 -13.872  14.670  0.00  0.00    +0.060 A 
ENDROOT
BRANCH   1   8
ATOM      7  N   UNL     1     -28.683 -13.504  17.568  0.00  0.00    -0.307 N 
ATOM      8  C   UNL     1     -29.762 -14.155  16.882  0.00  0.00    +0.246 C 
ATOM      9  O   UNL     1     -30.682 -14.711  17.542  0.00  0.00    -0.270 OA
ATOM     10  H   UNL     1     -27.930 -13.035  17.016  0.00  0.00    +0.149 HD
BRANCH   7  11
ATOM     11  C   UNL     1     -28.624 -13.413  19.026  0.00  0.00    +0.139 C 
BRANCH  11  16
ATOM     12  C   UNL     1     -30.641  -8.239  20.766  0.00  0.00    +0.044 C 
ATOM     13  C   UNL     1     -30.160  -9.585  20.311  0.00  0.00    -0.050 A 
ATOM     14  C   UNL     1     -30.007 -10.630  21.235  0.00  0.00    +0.003 A 
ATOM     15  C   UNL     1     -29.506 -11.869  20.823  0.00  0.00    +0.005 A 
ATOM     16  C   UNL     1     -29.139 -12.075  19.484  0.00  0.00    -0.030 A 
ATOM     17  C   UNL     1     -29.291 -11.029  18.561  0.00  0.00    +0.005 A 
ATOM     18  C   UNL     1     -29.786  -9.788  18.974  0.00  0.00    +0.003 A 
ENDBRANCH  11  16
ENDBRANCH   7  11
ENDBRANCH   1   8
BRANCH   6  19
ATOM     19  N   UNL     1     -32.110 -13.324  15.334  0.00  0.00    -0.216 N 
ATOM     20  H   UNL     1     -32.837 -13.961  15.730  0.00  0.00    +0.174 HD
BRANCH  19  21
ATOM     21  S   UNL     1     -32.423 -11.620  15.421  0.00  0.00    +0.072 S 
ATOM     22  O   UNL     1     -31.192 -10.866  15.003  0.00  0.00    -0.150 OA
ATOM     23  O   UNL     1     -33.537 -11.271  14.476  0.00  0.00    -0.150 OA
BRANCH  21  24
ATOM     24  C   UNL     1     -32.896 -11.184  17.059  0.00  0.00    +0.109 A 
ATOM     25  C   UNL     1     -32.796 -12.132  18.084  0.00  0.00    +0.029 A 
ATOM     26  C   UNL     1     -33.165 -11.799  19.391  0.00  0.00    +0.017 A 
ATOM     27  C   UNL     1     -33.638 -10.508  19.691  0.00  0.00    +0.059 A 
ATOM     28  C   UNL     1     -33.732  -9.559  18.657  0.00  0.00    +0.017 A 
ATOM     29  C   UNL     1     -33.364  -9.895  17.351  0.00  0.00    +0.029 A 
BRANCH  27  30
ATOM     30  C   UNL     1     -34.024 -10.161  21.076  0.00  0.00    +0.337 C 
ATOM     31  O   UNL     1     -33.451 -10.712  22.055  0.00  0.00    -0.245 OA
BRANCH  30  32
ATOM     32  O   UNL     1     -35.026  -9.222  21.310  0.00  0.00    -0.477 OA
ATOM     33  H   UNL     1     -35.606  -8.878  20.552  0.00  0.00    +0.295 HD
ENDBRANCH  30  32
ENDBRANCH  27  30
ENDBRANCH  21  24
ENDBRANCH  19  21
ENDBRANCH   6  19
TORSDOF 8
ENDMDL
MODEL 4
REMARK VINA RESULT:    -5.299      2.522      5.250
REMARK INTER + INTRA:         -10.014
REMARK INTER:                  -6.529
REMARK INTRA:                  -3.485
REMARK UNBOUND:                -2.391
REMARK  Name = 
REMARK  9 active torsions:
REMARK  status: ('A' for Active; 'I' for Inactive)
REMARK    1  A    between atoms: C_1  and  C_2
REMARK    2  A    between atoms: C_5  and  C_8
REMARK    3  A    between atoms: C_8  and  N_9
REMARK    4  A    between atoms: C_10  and  C_12
REMARK    5  A    between atoms: C_17  and  N_18
REMARK    6  A    between atoms: N_18  and  S_19
REMARK    7  A    between atoms: S_19  and  C_22
REMARK    8  A    between atoms: C_25  and  C_28
REMARK    9  A    between atoms: C_28  and  O_30
REMARK                            x       y       z     vdW  Elec       q    Type
REMARK                         _______ _______ _______ _____ _____    ______ ____
ROOT
ATOM      1  C   UNL     1     -30.755  -9.287  20.727  0.00  0.00    +0.059 A 
ATOM      2  C   UNL     1     -30.537  -8.604  21.937  0.00  0.00    +0.015 A 
ATOM      3  C   UNL     1     -30.874  -7.255  22.062  0.00  0.00    +0.001 A 
ATOM      4  C   UNL     1     -31.438  -6.574  20.984  0.00  0.00    +0.002 A 
ATOM      5  C   UNL     1     -31.677  -7.239  19.782  0.00  0.00    +0.025 A 
ATOM      6  C   UNL     1     -31.340  -8.598  19.635  0.00  0.00    +0.060 A 
ENDROOT
BRANCH   1   8
ATOM      7  N   UNL     1     -31.203 -11.715  20.170  0.00  0.00    -0.307 N 
ATOM      8  C   UNL     1     -30.299 -10.689  20.606  0.00  0.00    +0.246 C 
ATOM      9  O   UNL     1     -29.112 -10.986  20.913  0.00  0.00    -0.270 OA
ATOM     10  H   UNL     1     -32.181 -11.461  19.906  0.00  0.00    +0.149 HD
BRANCH   7  11
ATOM     11  C   UNL     1     -30.790 -13.109  20.019  0.00  0.00    +0.139 C 
BRANCH  11  16
ATOM     12  C   UNL     1     -30.053 -14.413  14.396  0.00  0.00    +0.044 C 
ATOM     13  C   UNL     1     -30.234 -14.116  15.854  0.00  0.00    -0.050 A 
ATOM     14  C   UNL     1     -31.485 -14.298  16.463  0.00  0.00    +0.003 A 
ATOM     15  C   UNL     1     -31.670 -13.969  17.810  0.00  0.00    +0.005 A 
ATOM     16  C   UNL     1     -30.608 -13.441  18.563  0.00  0.00    -0.030 A 
ATOM     17  C   UNL     1     -29.358 -13.258  17.953  0.00  0.00    +0.005 A 
ATOM     18  C   UNL     1     -29.175 -13.581  16.604  0.00  0.00    +0.003 A 
ENDBRANCH  11  16
ENDBRANCH   7  11
ENDBRANCH   1   8
BRANCH   6  19
ATOM     19  N   UNL     1     -31.650  -9.289  18.412  0.00  0.00    -0.216 N 
ATOM     20  H   UNL     1     -30.932  -9.360  17.656  0.00  0.00    +0.174 HD
BRANCH  19  21
ATOM     21  S   UNL     1     -33.222  -9.933  18.068  0.00  0.00    +0.072 S 
ATOM     22  O   UNL     1     -33.587 -10.944  19.118  0.00  0.00    -0.150 OA
ATOM     23  O   UNL     1     -34.233  -8.823  18.108  0.00  0.00    -0.150 OA
BRANCH  21  24
ATOM     24  C   UNL     1     -33.230 -10.665  16.468  0.00  0.00    +0.109 A 
ATOM     25  C   UNL     1     -32.111 -10.527  15.638  0.00  0.00    +0.029 A 
ATOM     26  C   UNL     1     -32.100 -11.106  14.366  0.00  0.00    +0.017 A 
ATOM     27  C   UNL     1     -33.213 -11.834  13.905  0.00  0.00    +0.059 A 
ATOM     28  C   UNL     1     -34.333 -11.972  14.745  0.00  0.00    +0.017 A 
ATOM     29  C   UNL     1     -34.342 -11.391  16.017  0.00  0.00    +0.029 A 
BRANCH  27  30
ATOM     30  C   UNL     1     -33.195 -12.446  12.559  0.00  0.00    +0.337 C 
ATOM     31  O   UNL     1     -32.102 -12.644  11.962  0.00  0.00    -0.245 OA
BRANCH  30  32
ATOM     32  O   UNL     1     -34.389 -12.809  11.938  0.00  0.00    -0.477 OA
ATOM     33  H   UNL     1     -34.965 -13.557  12.310  0.00  0.00    +0.295 HD
ENDBRANCH  30  32
ENDBRANCH  27  30
ENDBRANCH  21  24
ENDBRANCH  19  21
ENDBRANCH   6  19
TORSDOF 8
ENDMDL
MODEL 5
REMARK VINA RESULT:    -5.148      1.878      2.568
REMARK INTER + INTRA:          -9.796
REMARK INTER:                  -8.168
REMARK INTRA:                  -1.628
REMARK UNBOUND:                -2.391
REMARK  Name = 
REMARK  9 active torsions:
REMARK  status: ('A' for Active; 'I' for Inactive)
REMARK    1  A    between atoms: C_1  and  C_2
REMARK    2  A    between atoms: C_5  and  C_8
REMARK    3  A    between atoms: C_8  and  N_9
REMARK    4  A    between atoms: C_10  and  C_12
REMARK    5  A    between atoms: C_17  and  N_18
REMARK    6  A    between atoms: N_18  and  S_19
REMARK    7  A    between atoms: S_19  and  C_22
REMARK    8  A    between atoms: C_25  and  C_28
REMARK    9  A    between atoms: C_28  and  O_30
REMARK                            x       y       z     vdW  Elec       q    Type
REMARK                         _______ _______ _______ _____ _____    ______ ____
ROOT
ATOM      1  C   UNL     1     -33.886  -9.619  17.107  0.00  0.00    +0.059 A 
ATOM      2  C   UNL     1     -34.811  -8.562  17.062  0.00  0.00    +0.015 A 
ATOM      3  C   UNL     1     -34.719  -7.497  17.960  0.00  0.00    +0.001 A 
ATOM      4  C   UNL     1     -33.699  -7.472  18.909  0.00  0.00    +0.002 A 
ATOM      5  C   UNL     1     -32.761  -8.504  18.959  0.00  0.00    +0.025 A 
ATOM      6  C   UNL     1     -32.840  -9.587  18.065  0.00  0.00    +0.060 A 
ENDROOT
BRANCH   1   8
ATOM      7  N   UNL     1     -33.193 -10.973  15.084  0.00  0.00    -0.307 N 
ATOM      8  C   UNL     1     -34.073 -10.772  16.200  0.00  0.00    +0.246 C 
ATOM      9  O   UNL     1     -35.030 -11.569  16.397  0.00  0.00    -0.270 OA
ATOM     10  H   UNL     1     -32.394 -10.316  14.932  0.00  0.00    +0.149 HD
BRANCH   7  11
ATOM     11  C   UNL     1     -33.330 -12.108  14.173  0.00  0.00    +0.139 C 
BRANCH  11  16
ATOM     12  C   UNL     1     -28.325 -15.062  13.878  0.00  0.00    +0.044 C 
ATOM     13  C   UNL     1     -29.635 -14.337  13.955  0.00  0.00    -0.050 A 
ATOM     14  C   UNL     1     -30.329 -14.004  12.781  0.00  0.00    +0.003 A 
ATOM     15  C   UNL     1     -31.523 -13.279  12.848  0.00  0.00    +0.005 A 
ATOM     16  C   UNL     1     -32.032 -12.865  14.090  0.00  0.00    -0.030 A 
ATOM     17  C   UNL     1     -31.337 -13.197  15.262  0.00  0.00    +0.005 A 
ATOM     18  C   UNL     1     -30.139 -13.916  15.195  0.00  0.00    +0.003 A 
ENDBRANCH  11  16
ENDBRANCH   7  11
ENDBRANCH   1   8
BRANCH   6  19
ATOM     19  N   UNL     1     -31.831 -10.613  18.083  0.00  0.00    -0.216 N 
ATOM     20  H   UNL     1     -31.024 -10.563  17.421  0.00  0.00    +0.174 HD
BRANCH  19  21
ATOM     21  S   UNL     1     -31.939 -12.018  19.092  0.00  0.00    +0.072 S 
ATOM     22  O   UNL     1     -32.715 -11.682  20.334  0.00  0.00    -0.150 OA
ATOM     23  O   UNL     1     -32.669 -13.104  18.355  0.00  0.00    -0.150 OA
BRANCH  21  24
ATOM     24  C   UNL     1     -30.323 -12.584  19.501  0.00  0.00    +0.109 A 
ATOM     25  C   UNL     1     -30.094 -13.187  20.744  0.00  0.00    +0.029 A 
ATOM     26  C   UNL     1     -28.817 -13.644  21.081  0.00  0.00    +0.017 A 
ATOM     27  C   UNL     1     -27.748 -13.506  20.176  0.00  0.00    +0.059 A 
ATOM     28  C   UNL     1     -27.985 -12.902  18.928  0.00  0.00    +0.017 A 
ATOM     29  C   UNL     1     -29.263 -12.444  18.593  0.00  0.00    +0.029 A 
BRANCH  27  30
ATOM     30  C   UNL     1     -26.400 -13.994  20.538  0.00  0.00    +0.337 C 
ATOM     31  O   UNL     1     -25.787 -13.504  21.525  0.00  0.00    -0.245 OA
BRANCH  30  32
ATOM     32  O   UNL     1     -25.794 -15.000  19.788  0.00  0.00    -0.477 OA
ATOM     33  H   UNL     1     -24.818 -15.238  19.926  0.00  0.00    +0.295 HD
ENDBRANCH  30  32
ENDBRANCH  27  30
ENDBRANCH  21  24
ENDBRANCH  19  21
ENDBRANCH   6  19
TORSDOF 8
ENDMDL
MODEL 6
REMARK VINA RESULT:    -4.846      1.094      1.481
REMARK INTER + INTRA:          -9.361
REMARK INTER:                  -7.504
REMARK INTRA:                  -1.857
REMARK UNBOUND:                -2.391
REMARK  Name = 
REMARK  9 active torsions:
REMARK  status: ('A' for Active; 'I' for Inactive)
REMARK    1  A    between atoms: C_1  and  C_2
REMARK    2  A    between atoms: C_5  and  C_8
REMARK    3  A    between atoms: C_8  and  N_9
REMARK    4  A    between atoms: C_10  and  C_12
REMARK    5  A    between atoms: C_17  and  N_18
REMARK    6  A    between atoms: N_18  and  S_19
REMARK    7  A    between atoms: S_19  and  C_22
REMARK    8  A    between atoms: C_25  and  C_28
REMARK    9  A    between atoms: C_28  and  O_30
REMARK                            x       y       z     vdW  Elec       q    Type
REMARK                         _______ _______ _______ _____ _____    ______ ____
ROOT
ATOM      1  C   UNL     1     -34.666  -9.421  15.488  0.00  0.00    +0.059 A 
ATOM      2  C   UNL     1     -34.775  -8.402  14.526  0.00  0.00    +0.015 A 
ATOM      3  C   UNL     1     -34.973  -7.076  14.915  0.00  0.00    +0.001 A 
ATOM      4  C   UNL     1     -35.059  -6.750  16.267  0.00  0.00    +0.002 A 
ATOM      5  C   UNL     1     -34.937  -7.746  17.237  0.00  0.00    +0.025 A 
ATOM      6  C   UNL     1     -34.741  -9.089  16.865  0.00  0.00    +0.060 A 
ENDROOT
BRANCH   1   8
ATOM      7  N   UNL     1     -33.895 -11.138  13.795  0.00  0.00    -0.307 N 
ATOM      8  C   UNL     1     -34.550 -10.824  15.033  0.00  0.00    +0.246 C 
ATOM      9  O   UNL     1     -35.054 -11.747  15.729  0.00  0.00    -0.270 OA
ATOM     10  H   UNL     1     -33.469 -10.370  13.228  0.00  0.00    +0.149 HD
BRANCH   7  11
ATOM     11  C   UNL     1     -33.742 -12.510  13.317  0.00  0.00    +0.139 C 
BRANCH  11  16
ATOM     12  C   UNL     1     -28.445 -14.524  14.642  0.00  0.00    +0.044 C 
ATOM     13  C   UNL     1     -29.825 -14.043  14.307  0.00  0.00    -0.050 A 
ATOM     14  C   UNL     1     -30.299 -14.116  12.988  0.00  0.00    +0.003 A 
ATOM     15  C   UNL     1     -31.565 -13.617  12.663  0.00  0.00    +0.005 A 
ATOM     16  C   UNL     1     -32.368 -13.026  13.651  0.00  0.00    -0.030 A 
ATOM     17  C   UNL     1     -31.893 -12.951  14.969  0.00  0.00    +0.005 A 
ATOM     18  C   UNL     1     -30.625 -13.445  15.293  0.00  0.00    +0.003 A 
ENDBRANCH  11  16
ENDBRANCH   7  11
ENDBRANCH   1   8
BRANCH   6  19
ATOM     19  N   UNL     1     -34.552 -10.097  17.874  0.00  0.00    -0.216 N 
ATOM     20  H   UNL     1     -35.098 -10.987  17.831  0.00  0.00    +0.174 HD
BRANCH  19  21
ATOM     21  S   UNL     1     -33.527  -9.866  19.253  0.00  0.00    +0.072 S 
ATOM     22  O   UNL     1     -33.413  -8.398  19.549  0.00  0.00    -0.150 OA
ATOM     23  O   UNL     1     -34.138 -10.545  20.445  0.00  0.00    -0.150 OA
BRANCH  21  24
ATOM     24  C   UNL     1     -31.942 -10.565  18.940  0.00  0.00    +0.109 A 
ATOM     25  C   UNL     1     -31.591 -11.780  19.540  0.00  0.00    +0.029 A 
ATOM     26  C   UNL     1     -30.337 -12.349  19.299  0.00  0.00    +0.017 A 
ATOM     27  C   UNL     1     -29.416 -11.709  18.449  0.00  0.00    +0.059 A 
ATOM     28  C   UNL     1     -29.776 -10.490  17.846  0.00  0.00    +0.017 A 
ATOM     29  C   UNL     1     -31.030  -9.922  18.090  0.00  0.00    +0.029 A 
BRANCH  27  30
ATOM     30  C   UNL     1     -28.091 -12.317  18.195  0.00  0.00    +0.337 C 
ATOM     31  O   UNL     1     -27.049 -11.607  18.208  0.00  0.00    -0.245 OA
BRANCH  30  32
ATOM     32  O   UNL     1     -27.985 -13.683  17.938  0.00  0.00    -0.477 OA
ATOM     33  H   UNL     1     -28.606 -14.348  18.386  0.00  0.00    +0.295 HD
ENDBRANCH  30  32
ENDBRANCH  27  30
ENDBRANCH  21  24
ENDBRANCH  19  21
ENDBRANCH   6  19
TORSDOF 8
ENDMDL
MODEL 7
REMARK VINA RESULT:    -4.835      2.207      5.778
REMARK INTER + INTRA:          -9.346
REMARK INTER:                  -7.958
REMARK INTRA:                  -1.388
REMARK UNBOUND:                -2.391
REMARK  Name = 
REMARK  9 active torsions:
REMARK  status: ('A' for Active; 'I' for Inactive)
REMARK    1  A    between atoms: C_1  and  C_2
REMARK    2  A    between atoms: C_5  and  C_8
REMARK    3  A    between atoms: C_8  and  N_9
REMARK    4  A    between atoms: C_10  and  C_12
REMARK    5  A    between atoms: C_17  and  N_18
REMARK    6  A    between atoms: N_18  and  S_19
REMARK    7  A    between atoms: S_19  and  C_22
REMARK    8  A    between atoms: C_25  and  C_28
REMARK    9  A    between atoms: C_28  and  O_30
REMARK                            x       y       z     vdW  Elec       q    Type
REMARK                         _______ _______ _______ _____ _____    ______ ____
ROOT
ATOM      1  C   UNL     1     -31.297 -12.944  14.569  0.00  0.00    +0.059 A 
ATOM      2  C   UNL     1     -30.766 -13.614  13.453  0.00  0.00    +0.015 A 
ATOM      3  C   UNL     1     -29.855 -14.658  13.618  0.00  0.00    +0.001 A 
ATOM      4  C   UNL     1     -29.467 -15.051  14.898  0.00  0.00    +0.002 A 
ATOM      5  C   UNL     1     -29.996 -14.409  16.018  0.00  0.00    +0.025 A 
ATOM      6  C   UNL     1     -30.913 -13.352  15.873  0.00  0.00    +0.060 A 
ENDROOT
BRANCH   1   8
ATOM      7  N   UNL     1     -33.593 -11.974  14.130  0.00  0.00    -0.307 N 
ATOM      8  C   UNL     1     -32.187 -11.784  14.350  0.00  0.00    +0.246 C 
ATOM      9  O   UNL     1     -31.700 -10.621  14.332  0.00  0.00    -0.270 OA
ATOM     10  H   UNL     1     -33.993 -12.938  14.158  0.00  0.00    +0.149 HD
BRANCH   7  11
ATOM     11  C   UNL     1     -34.511 -10.855  13.927  0.00  0.00    +0.139 C 
BRANCH  11  16
ATOM     12  C   UNL     1     -34.829  -7.575  18.723  0.00  0.00    +0.044 C 
ATOM     13  C   UNL     1     -34.788  -8.420  17.485  0.00  0.00    -0.050 A 
ATOM     14  C   UNL     1     -34.820  -9.819  17.584  0.00  0.00    +0.003 A 
ATOM     15  C   UNL     1     -34.727 -10.611  16.434  0.00  0.00    +0.005 A 
ATOM     16  C   UNL     1     -34.586 -10.013  15.172  0.00  0.00    -0.030 A 
ATOM     17  C   UNL     1     -34.552  -8.614  15.074  0.00  0.00    +0.005 A 
ATOM     18  C   UNL     1     -34.639  -7.822  16.225  0.00  0.00    +0.003 A 
ENDBRANCH  11  16
ENDBRANCH   7  11
ENDBRANCH   1   8
BRANCH   6  19
ATOM     19  N   UNL     1     -31.500 -12.740  17.035  0.00  0.00    -0.216 N 
ATOM     20  H   UNL     1     -32.480 -12.975  17.310  0.00  0.00    +0.174 HD
BRANCH  19  21
ATOM     21  S   UNL     1     -30.689 -11.523  17.967  0.00  0.00    +0.072 S 
ATOM     22  O   UNL     1     -30.180 -10.449  17.048  0.00  0.00    -0.150 OA
ATOM     23  O   UNL     1     -31.663 -10.903  18.928  0.00  0.00    -0.150 OA
BRANCH  21  24
ATOM     24  C   UNL     1     -29.366 -12.248  18.873  0.00  0.00    +0.109 A 
ATOM     25  C   UNL     1     -28.043 -11.946  18.527  0.00  0.00    +0.029 A 
ATOM     26  C   UNL     1     -26.982 -12.511  19.240  0.00  0.00    +0.017 A 
ATOM     27  C   UNL     1     -27.230 -13.388  20.312  0.00  0.00    +0.059 A 
ATOM     28  C   UNL     1     -28.561 -13.685  20.657  0.00  0.00    +0.017 A 
ATOM     29  C   UNL     1     -29.622 -13.119  19.942  0.00  0.00    +0.029 A 
BRANCH  27  30
ATOM     30  C   UNL     1     -26.103 -13.981  21.064  0.00  0.00    +0.337 C 
ATOM     31  O   UNL     1     -24.938 -13.515  20.940  0.00  0.00    -0.245 OA
BRANCH  30  32
ATOM     32  O   UNL     1     -26.320 -15.062  21.916  0.00  0.00    -0.477 OA
ATOM     33  H   UNL     1     -27.194 -15.162  22.420  0.00  0.00    +0.295 HD
ENDBRANCH  30  32
ENDBRANCH  27  30
ENDBRANCH  21  24
ENDBRANCH  19  21
ENDBRANCH   6  19
TORSDOF 8
ENDMDL
MODEL 8
REMARK VINA RESULT:    -4.477      2.636      5.024
REMARK INTER + INTRA:          -8.831
REMARK INTER:                  -5.960
REMARK INTRA:                  -2.872
REMARK UNBOUND:                -2.391
REMARK  Name = 
REMARK  9 active torsions:
REMARK  status: ('A' for Active; 'I' for Inactive)
REMARK    1  A    between atoms: C_1  and  C_2
REMARK    2  A    between atoms: C_5  and  C_8
REMARK    3  A    between atoms: C_8  and  N_9
REMARK    4  A    between atoms: C_10  and  C_12
REMARK    5  A    between atoms: C_17  and  N_18
REMARK    6  A    between atoms: N_18  and  S_19
REMARK    7  A    between atoms: S_19  and  C_22
REMARK    8  A    between atoms: C_25  and  C_28
REMARK    9  A    between atoms: C_28  and  O_30
REMARK                            x       y       z     vdW  Elec       q    Type
REMARK                         _______ _______ _______ _____ _____    ______ ____
ROOT
ATOM      1  C   UNL     1     -31.945  -8.890  20.369  0.00  0.00    +0.059 A 
ATOM      2  C   UNL     1     -31.008  -8.155  21.116  0.00  0.00    +0.015 A 
ATOM      3  C   UNL     1     -30.947  -6.765  21.008  0.00  0.00    +0.001 A 
ATOM      4  C   UNL     1     -31.823  -6.091  20.159  0.00  0.00    +0.002 A 
ATOM      5  C   UNL     1     -32.770  -6.802  19.422  0.00  0.00    +0.025 A 
ATOM      6  C   UNL     1     -32.845  -8.204  19.514  0.00  0.00    +0.060 A 
ENDROOT
BRANCH   1   8
ATOM      7  N   UNL     1     -30.668 -11.068  20.556  0.00  0.00    -0.307 N 
ATOM      8  C   UNL     1     -31.916 -10.367  20.442  0.00  0.00    +0.246 C 
ATOM      9  O   UNL     1     -32.996 -11.014  20.377  0.00  0.00    -0.270 OA
ATOM     10  H   UNL     1     -29.777 -10.527  20.621  0.00  0.00    +0.149 HD
BRANCH   7  11
ATOM     11  C   UNL     1     -30.595 -12.525  20.648  0.00  0.00    +0.139 C 
BRANCH  11  16
ATOM     12  C   UNL     1     -25.030 -14.225  20.535  0.00  0.00    +0.044 C 
ATOM     13  C   UNL     1     -26.453 -13.755  20.588  0.00  0.00    -0.050 A 
ATOM     14  C   UNL     1     -27.305 -14.196  21.612  0.00  0.00    +0.003 A 
ATOM     15  C   UNL     1     -28.648 -13.803  21.632  0.00  0.00    +0.005 A 
ATOM     16  C   UNL     1     -29.159 -12.974  20.620  0.00  0.00    -0.030 A 
ATOM     17  C   UNL     1     -28.307 -12.536  19.596  0.00  0.00    +0.005 A 
ATOM     18  C   UNL     1     -26.965 -12.934  19.572  0.00  0.00    +0.003 A 
ENDBRANCH  11  16
ENDBRANCH   7  11
ENDBRANCH   1   8
BRANCH   6  19
ATOM     19  N   UNL     1     -33.868  -8.921  18.799  0.00  0.00    -0.216 N 
ATOM     20  H   UNL     1     -34.721  -9.252  19.301  0.00  0.00    +0.174 HD
BRANCH  19  21
ATOM     21  S   UNL     1     -33.707  -9.374  17.133  0.00  0.00    +0.072 S 
ATOM     22  O   UNL     1     -35.062  -9.704  16.574  0.00  0.00    -0.150 OA
ATOM     23  O   UNL     1     -33.142  -8.219  16.357  0.00  0.00    -0.150 OA
BRANCH  21  24
ATOM     24  C   UNL     1     -32.622 -10.751  16.992  0.00  0.00    +0.109 A 
ATOM     25  C   UNL     1     -33.115 -12.046  17.197  0.00  0.00    +0.029 A 
ATOM     26  C   UNL     1     -32.266 -13.150  17.084  0.00  0.00    +0.017 A 
ATOM     27  C   UNL     1     -30.907 -12.975  16.764  0.00  0.00    +0.059 A 
ATOM     28  C   UNL     1     -30.418 -11.672  16.556  0.00  0.00    +0.017 A 
ATOM     29  C   UNL     1     -31.269 -10.569  16.670  0.00  0.00    +0.029 A 
BRANCH  27  30
ATOM     30  C   UNL     1     -30.014 -14.148  16.644  0.00  0.00    +0.337 C 
ATOM     31  O   UNL     1     -29.338 -14.331  15.595  0.00  0.00    -0.245 OA
BRANCH  30  32
ATOM     32  O   UNL     1     -29.913 -15.062  17.691  0.00  0.00    -0.477 OA
ATOM     33  H   UNL     1     -29.039 -15.189  18.190  0.00  0.00    +0.295 HD
ENDBRANCH  30  32
ENDBRANCH  27  30
ENDBRANCH  21  24
ENDBRANCH  19  21
ENDBRANCH   6  19
TORSDOF 8
ENDMDL
MODEL 9
REMARK VINA RESULT:    -4.468      2.422      5.987
REMARK INTER + INTRA:          -8.818
REMARK INTER:                  -6.406
REMARK INTRA:                  -2.412
REMARK UNBOUND:                -2.391
REMARK  Name = 
REMARK  9 active torsions:
REMARK  status: ('A' for Active; 'I' for Inactive)
REMARK    1  A    between atoms: C_1  and  C_2
REMARK    2  A    between atoms: C_5  and  C_8
REMARK    3  A    between atoms: C_8  and  N_9
REMARK    4  A    between atoms: C_10  and  C_12
REMARK    5  A    between atoms: C_17  and  N_18
REMARK    6  A    between atoms: N_18  and  S_19
REMARK    7  A    between atoms: S_19  and  C_22
REMARK    8  A    between atoms: C_25  and  C_28
REMARK    9  A    between atoms: C_28  and  O_30
REMARK                            x       y       z     vdW  Elec       q    Type
REMARK                         _______ _______ _______ _____ _____    ______ ____
ROOT
ATOM      1  C   UNL     1     -28.814 -12.003  19.201  0.00  0.00    +0.059 A 
ATOM      2  C   UNL     1     -27.444 -12.316  19.151  0.00  0.00    +0.015 A 
ATOM      3  C   UNL     1     -26.881 -13.194  20.077  0.00  0.00    +0.001 A 
ATOM      4  C   UNL     1     -27.679 -13.776  21.062  0.00  0.00    +0.002 A 
ATOM      5  C   UNL     1     -29.043 -13.490  21.117  0.00  0.00    +0.025 A 
ATOM      6  C   UNL     1     -29.629 -12.604  20.194  0.00  0.00    +0.060 A 
ENDROOT
BRANCH   1   8
ATOM      7  N   UNL     1     -30.303 -11.375  17.252  0.00  0.00    -0.307 N 
ATOM      8  C   UNL     1     -29.352 -10.997  18.260  0.00  0.00    +0.246 C 
ATOM      9  O   UNL     1     -28.952  -9.803  18.329  0.00  0.00    -0.270 OA
ATOM     10  H   UNL     1     -30.640 -12.363  17.207  0.00  0.00    +0.149 HD
BRANCH   7  11
ATOM     11  C   UNL     1     -30.874 -10.412  16.314  0.00  0.00    +0.139 C 
BRANCH  11  16
ATOM     12  C   UNL     1     -33.881 -13.151  12.152  0.00  0.00    +0.044 C 
ATOM     13  C   UNL     1     -33.085 -12.426  13.195  0.00  0.00    -0.050 A 
ATOM     14  C   UNL     1     -31.891 -12.979  13.684  0.00  0.00    +0.003 A 
ATOM     15  C   UNL     1     -31.175 -12.332  14.696  0.00  0.00    +0.005 A 
ATOM     16  C   UNL     1     -31.651 -11.129  15.243  0.00  0.00    -0.030 A 
ATOM     17  C   UNL     1     -32.845 -10.578  14.755  0.00  0.00    +0.005 A 
ATOM     18  C   UNL     1     -33.565 -11.228  13.747  0.00  0.00    +0.003 A 
ENDBRANCH  11  16
ENDBRANCH   7  11
ENDBRANCH   1   8
BRANCH   6  19
ATOM     19  N   UNL     1     -31.047 -12.367  20.222  0.00  0.00    -0.216 N 
ATOM     20  H   UNL     1     -31.693 -13.005  19.706  0.00  0.00    +0.174 HD
BRANCH  19  21
ATOM     21  S   UNL     1     -31.754 -10.984  20.992  0.00  0.00    +0.072 S 
ATOM     22  O   UNL     1     -32.707 -11.441  22.060  0.00  0.00    -0.150 OA
ATOM     23  O   UNL     1     -30.671 -10.168  21.640  0.00  0.00    -0.150 OA
BRANCH  21  24
ATOM     24  C   UNL     1     -32.584  -9.996  19.796  0.00  0.00    +0.109 A 
ATOM     25  C   UNL     1     -32.181  -8.671  19.592  0.00  0.00    +0.029 A 
ATOM     26  C   UNL     1     -32.828  -7.875  18.643  0.00  0.00    +0.017 A 
ATOM     27  C   UNL     1     -33.891  -8.395  17.881  0.00  0.00    +0.059 A 
ATOM     28  C   UNL     1     -34.289  -9.728  18.089  0.00  0.00    +0.017 A 
ATOM     29  C   UNL     1     -33.641 -10.522  19.039  0.00  0.00    +0.029 A 
BRANCH  27  30
ATOM     30  C   UNL     1     -34.570  -7.548  16.877  0.00  0.00    +0.337 C 
ATOM     31  O   UNL     1     -35.063  -8.063  15.836  0.00  0.00    -0.245 OA
BRANCH  30  32
ATOM     32  O   UNL     1     -34.672  -6.172  17.073  0.00  0.00    -0.477 OA
ATOM     33  H   UNL     1     -35.459  -5.773  17.573  0.00  0.00    +0.295 HD
ENDBRANCH  30  32
ENDBRANCH  27  30
ENDBRANCH  21  24
ENDBRANCH  19  21
ENDBRANCH   6  19
TORSDOF 8
ENDMDL
