MODEL 1
REMARK VINA RESULT:    -4.687      0.000      0.000
REMARK INTER + INTRA:          -6.859
REMARK INTER:                  -6.194
REMARK INTRA:                  -0.665
REMARK UNBOUND:                -0.665
REMARK  Name = 
REMARK  6 active torsions:
REMARK  status: ('A' for Active; 'I' for Inactive)
REMARK    1  A    between atoms: C_2  and  O_3
REMARK    2  A    between atoms: C_2  and  C_4
REMARK    3  A    between atoms: C_4  and  N_5
REMARK    4  A    between atoms: N_5  and  C_6
REMARK    5  A    between atoms: C_6  and  C_7
REMARK    6  A    between atoms: C_13  and  C_15
REMARK                            x       y       z     vdW  Elec       q    Type
REMARK                         _______ _______ _______ _____ _____    ______ ____
ROOT
ATOM      1  N   UNL     1     -31.125 -13.377  16.162  0.00  0.00    -0.282 N 
ATOM      2  C   UNL     1     -31.952 -13.305  17.332  0.00  0.00    +0.248 C 
ATOM      3  O   UNL     1     -33.177 -13.588  17.235  0.00  0.00    -0.270 OA
ENDROOT
BRANCH   2   4
ATOM      4  C   UNL     1     -31.393 -12.894  18.638  0.00  0.00    +0.044 A 
ATOM      5  C   UNL     1     -30.113 -13.256  19.091  0.00  0.00    +0.020 A 
ATOM      6  C   UNL     1     -29.810 -12.768  20.354  0.00  0.00    +0.046 A 
ATOM      7  S   UNL     1     -31.130 -11.887  20.905  0.00  0.00    -0.104 S 
ATOM      8  C   UNL     1     -32.099 -12.113  19.552  0.00  0.00    +0.058 A 
ENDBRANCH   2   4
BRANCH   1   9
ATOM      9  C   UNL     1     -30.630 -14.686  15.718  0.00  0.00    +0.228 C 
BRANCH   9  11
ATOM     10  O   UNL     1     -28.751 -14.875  14.257  0.00  0.00    -0.249 OA
ATOM     11  C   UNL     1     -29.169 -14.616  15.417  0.00  0.00    +0.322 C 
BRANCH  11  12
ATOM     12  O   UNL     1     -28.264 -14.317  16.429  0.00  0.00    -0.480 OA
ATOM     13  H   UNL     1     -28.007 -15.013  17.118  0.00  0.00    +0.295 HD
ENDBRANCH  11  12
ENDBRANCH   9  11
ENDBRANCH   1   9
BRANCH   1  14
ATOM     14  C   UNL     1     -31.038 -12.209  15.278  0.00  0.00    +0.143 C 
BRANCH  14  15
ATOM     15  C   UNL     1     -32.046 -12.314  14.167  0.00  0.00    -0.030 A 
ATOM     16  C   UNL     1     -31.733 -13.006  12.985  0.00  0.00    +0.005 A 
ATOM     17  C   UNL     1     -32.657 -13.068  11.938  0.00  0.00    +0.000 A 
ATOM     18  C   UNL     1     -33.896 -12.435  12.062  0.00  0.00    +0.000 A 
ATOM     19  C   UNL     1     -34.213 -11.736  13.230  0.00  0.00    +0.000 A 
ATOM     20  C   UNL     1     -33.294 -11.677  14.280  0.00  0.00    +0.005 A 
ENDBRANCH  14  15
ENDBRANCH   1  14
TORSDOF 6
ENDMDL
MODEL 2
REMARK VINA RESULT:    -4.619      2.505      4.154
REMARK INTER + INTRA:          -6.770
REMARK INTER:                  -5.595
REMARK INTRA:                  -1.174
REMARK UNBOUND:                -0.665
REMARK  Name = 
REMARK  6 active torsions:
REMARK  status: ('A' for Active; 'I' for Inactive)
REMARK    1  A    between atoms: C_2  and  O_3
REMARK    2  A    between atoms: C_2  and  C_4
REMARK    3  A    between atoms: C_4  and  N_5
REMARK    4  A    between atoms: N_5  and  C_6
REMARK    5  A    between atoms: C_6  and  C_7
REMARK    6  A    between atoms: C_13  and  C_15
REMARK                            x       y       z     vdW  Elec       q    Type
REMARK                         _______ _______ _______ _____ _____    ______ ____
ROOT
ATOM      1  N   UNL     1     -31.009 -12.914  17.496  0.00  0.00    -0.282 N 
ATOM      2  C   UNL     1     -32.224 -12.269  17.902  0.00  0.00    +0.248 C 
ATOM      3  O   UNL     1     -32.660 -12.463  19.070  0.00  0.00    -0.270 OA
ENDROOT
BRANCH   2   4
ATOM      4  C   UNL     1     -32.975 -11.399  16.972  0.00  0.00    +0.044 A 
ATOM      5  C   UNL     1     -34.104 -11.817  16.247  0.00  0.00    +0.020 A 
ATOM      6  C   UNL     1     -34.634 -10.833  15.425  0.00  0.00    +0.046 A 
ATOM      7  S   UNL     1     -33.701  -9.447  15.600  0.00  0.00    -0.104 S 
ATOM      8  C   UNL     1     -32.617 -10.076  16.718  0.00  0.00    +0.058 A 
ENDBRANCH   2   4
BRANCH   1   9
ATOM      9  C   UNL     1     -29.724 -12.336  17.906  0.00  0.00    +0.228 C 
BRANCH   9  11
ATOM     10  O   UNL     1     -29.560 -13.416  20.029  0.00  0.00    -0.249 OA
ATOM     11  C   UNL     1     -29.044 -13.224  18.896  0.00  0.00    +0.322 C 
BRANCH  11  12
ATOM     12  O   UNL     1     -27.815 -13.795  18.587  0.00  0.00    -0.480 OA
ATOM     13  H   UNL     1     -27.367 -14.441  19.226  0.00  0.00    +0.295 HD
ENDBRANCH  11  12
ENDBRANCH   9  11
ENDBRANCH   1   9
BRANCH   1  14
ATOM     14  C   UNL     1     -31.072 -14.273  16.947  0.00  0.00    +0.143 C 
BRANCH  14  15
ATOM     15  C   UNL     1     -30.530 -14.299  15.544  0.00  0.00    -0.030 A 
ATOM     16  C   UNL     1     -31.265 -13.736  14.487  0.00  0.00    +0.005 A 
ATOM     17  C   UNL     1     -30.776 -13.798  13.178  0.00  0.00    +0.000 A 
ATOM     18  C   UNL     1     -29.556 -14.425  12.916  0.00  0.00    +0.000 A 
ATOM     19  C   UNL     1     -28.823 -14.995  13.960  0.00  0.00    +0.000 A 
ATOM     20  C   UNL     1     -29.305 -14.932  15.270  0.00  0.00    +0.005 A 
ENDBRANCH  14  15
ENDBRANCH   1  14
TORSDOF 6
ENDMDL
MODEL 3
REMARK VINA RESULT:    -4.504      3.280      4.568
REMARK INTER + INTRA:          -6.618
REMARK INTER:                  -5.388
REMARK INTRA:                  -1.230
REMARK UNBOUND:                -0.665
REMARK  Name = 
REMARK  6 active torsions:
REMARK  status: ('A' for Active; 'I' for Inactive)
REMARK    1  A    between atoms: C_2  and  O_3
REMARK    2  A    between atoms: C_2  and  C_4
REMARK    3  A    between atoms: C_4  and  N_5
REMARK    4  A    between atoms: N_5  and  C_6
REMARK    5  A    between atoms: C_6  and  C_7
REMARK    6  A    between atoms: C_13  and  C_15
REMARK                            x       y       z     vdW  Elec       q    Type
REMARK                         _______ _______ _______ _____ _____    ______ ____
ROOT
ATOM      1  N   UNL     1     -31.097 -10.038  17.993  0.00  0.00    -0.282 N 
ATOM      2  C   UNL     1     -30.098  -9.933  19.018  0.00  0.00    +0.248 C 
ATOM      3  O   UNL     1     -29.837  -8.799  19.504  0.00  0.00    -0.270 OA
ENDROOT
BRANCH   2   4
ATOM      4  C   UNL     1     -29.368 -11.126  19.498  0.00  0.00    +0.044 A 
ATOM      5  C   UNL     1     -28.172 -11.594  18.927  0.00  0.00    +0.020 A 
ATOM      6  C   UNL     1     -27.675 -12.739  19.533  0.00  0.00    +0.046 A 
ATOM      7  S   UNL     1     -28.720 -13.167  20.777  0.00  0.00    -0.104 S 
ATOM      8  C   UNL     1     -29.812 -11.909  20.562  0.00  0.00    +0.058 A 
ENDBRANCH   2   4
BRANCH   1   9
ATOM      9  C   UNL     1     -32.513 -10.046  18.376  0.00  0.00    +0.228 C 
BRANCH   9  11
ATOM     10  O   UNL     1     -34.262  -8.562  17.714  0.00  0.00    -0.249 OA
ATOM     11  C   UNL     1     -33.108  -8.687  18.203  0.00  0.00    +0.322 C 
BRANCH  11  12
ATOM     12  O   UNL     1     -32.368  -7.558  18.532  0.00  0.00    -0.480 OA
ATOM     13  H   UNL     1     -31.579  -7.271  17.965  0.00  0.00    +0.295 HD
ENDBRANCH  11  12
ENDBRANCH   9  11
ENDBRANCH   1   9
BRANCH   1  14
ATOM     14  C   UNL     1     -30.705  -9.838  16.593  0.00  0.00    +0.143 C 
BRANCH  14  15
ATOM     15  C   UNL     1     -31.126 -11.015  15.756  0.00  0.00    -0.030 A 
ATOM     16  C   UNL     1     -30.547 -12.278  15.962  0.00  0.00    +0.005 A 
ATOM     17  C   UNL     1     -30.912 -13.360  15.155  0.00  0.00    +0.000 A 
ATOM     18  C   UNL     1     -31.852 -13.187  14.136  0.00  0.00    +0.000 A 
ATOM     19  C   UNL     1     -32.426 -11.932  13.918  0.00  0.00    +0.000 A 
ATOM     20  C   UNL     1     -32.068 -10.849  14.725  0.00  0.00    +0.005 A 
ENDBRANCH  14  15
ENDBRANCH   1  14
TORSDOF 6
ENDMDL
MODEL 4
REMARK VINA RESULT:    -4.414      2.589      4.083
REMARK INTER + INTRA:          -6.498
REMARK INTER:                  -5.518
REMARK INTRA:                  -0.981
REMARK UNBOUND:                -0.665
REMARK  Name = 
REMARK  6 active torsions:
REMARK  status: ('A' for Active; 'I' for Inactive)
REMARK    1  A    between atoms: C_2  and  O_3
REMARK    2  A    between atoms: C_2  and  C_4
REMARK    3  A    between atoms: C_4  and  N_5
REMARK    4  A    between atoms: N_5  and  C_6
REMARK    5  A    between atoms: C_6  and  C_7
REMARK    6  A    between atoms: C_13  and  C_15
REMARK                            x       y       z     vdW  Elec       q    Type
REMARK                         _______ _______ _______ _____ _____    ______ ____
ROOT
ATOM      1  N   UNL     1     -31.066 -10.257  18.106  0.00  0.00    -0.282 N 
ATOM      2  C   UNL     1     -30.074 -10.052  19.121  0.00  0.00    +0.248 C 
ATOM      3  O   UNL     1     -29.957  -8.908  19.642  0.00  0.00    -0.270 OA
ENDROOT
BRANCH   2   4
ATOM      4  C   UNL     1     -29.184 -11.151  19.553  0.00  0.00    +0.044 A 
ATOM      5  C   UNL     1     -28.123 -11.649  18.778  0.00  0.00    +0.020 A 
ATOM      6  C   UNL     1     -27.434 -12.693  19.380  0.00  0.00    +0.046 A 
ATOM      7  S   UNL     1     -28.143 -12.993  20.873  0.00  0.00    -0.104 S 
ATOM      8  C   UNL     1     -29.328 -11.807  20.774  0.00  0.00    +0.058 A 
ENDBRANCH   2   4
BRANCH   1   9
ATOM      9  C   UNL     1     -32.463 -10.465  18.505  0.00  0.00    +0.228 C 
BRANCH   9  11
ATOM     10  O   UNL     1     -32.839 -11.691  20.519  0.00  0.00    -0.249 OA
ATOM     11  C   UNL     1     -32.599 -11.733  19.283  0.00  0.00    +0.322 C 
BRANCH  11  12
ATOM     12  O   UNL     1     -32.408 -12.957  18.654  0.00  0.00    -0.480 OA
ATOM     13  H   UNL     1     -31.726 -13.060  17.912  0.00  0.00    +0.295 HD
ENDBRANCH  11  12
ENDBRANCH   9  11
ENDBRANCH   1   9
BRANCH   1  14
ATOM     14  C   UNL     1     -30.727  -9.963  16.709  0.00  0.00    +0.143 C 
BRANCH  14  15
ATOM     15  C   UNL     1     -31.109 -11.116  15.821  0.00  0.00    -0.030 A 
ATOM     16  C   UNL     1     -30.481 -12.364  15.968  0.00  0.00    +0.005 A 
ATOM     17  C   UNL     1     -30.809 -13.422  15.115  0.00  0.00    +0.000 A 
ATOM     18  C   UNL     1     -31.761 -13.239  14.108  0.00  0.00    +0.000 A 
ATOM     19  C   UNL     1     -32.383 -11.999  13.950  0.00  0.00    +0.000 A 
ATOM     20  C   UNL     1     -32.061 -10.940  14.803  0.00  0.00    +0.005 A 
ENDBRANCH  14  15
ENDBRANCH   1  14
TORSDOF 6
ENDMDL
MODEL 5
REMARK VINA RESULT:    -4.358      2.715      3.943
REMARK INTER + INTRA:          -6.424
REMARK INTER:                  -5.508
REMARK INTRA:                  -0.916
REMARK UNBOUND:                -0.665
REMARK  Name = 
REMARK  6 active torsions:
REMARK  status: ('A' for Active; 'I' for Inactive)
REMARK    1  A    between atoms: C_2  and  O_3
REMARK    2  A    between atoms: C_2  and  C_4
REMARK    3  A    between atoms: C_4  and  N_5
REMARK    4  A    between atoms: N_5  and  C_6
REMARK    5  A    between atoms: C_6  and  C_7
REMARK    6  A    between atoms: C_13  and  C_15
REMARK                            x       y       z     vdW  Elec       q    Type
REMARK                         _______ _______ _______ _____ _____    ______ ____
ROOT
ATOM      1  N   UNL     1     -30.223 -13.215  17.779  0.00  0.00    -0.282 N 
ATOM      2  C   UNL     1     -31.243 -12.480  18.469  0.00  0.00    +0.248 C 
ATOM      3  O   UNL     1     -31.482 -12.752  19.678  0.00  0.00    -0.270 OA
ENDROOT
BRANCH   2   4
ATOM      4  C   UNL     1     -32.020 -11.424  17.785  0.00  0.00    +0.044 A 
ATOM      5  C   UNL     1     -31.455 -10.474  16.918  0.00  0.00    +0.020 A 
ATOM      6  C   UNL     1     -32.376  -9.571  16.404  0.00  0.00    +0.046 A 
ATOM      7  S   UNL     1     -33.888  -9.955  17.026  0.00  0.00    -0.104 S 
ATOM      8  C   UNL     1     -33.395 -11.267  17.952  0.00  0.00    +0.058 A 
ENDBRANCH   2   4
BRANCH   1   9
ATOM      9  C   UNL     1     -28.817 -12.846  17.980  0.00  0.00    +0.228 C 
BRANCH   9  11
ATOM     10  O   UNL     1     -27.959 -12.206  20.114  0.00  0.00    -0.249 OA
ATOM     11  C   UNL     1     -28.398 -13.134  19.385  0.00  0.00    +0.322 C 
BRANCH  11  12
ATOM     12  O   UNL     1     -28.443 -14.435  19.869  0.00  0.00    -0.480 OA
ATOM     13  H   UNL     1     -28.888 -15.174  19.336  0.00  0.00    +0.295 HD
ENDBRANCH  11  12
ENDBRANCH   9  11
ENDBRANCH   1   9
BRANCH   1  14
ATOM     14  C   UNL     1     -30.574 -14.485  17.132  0.00  0.00    +0.143 C 
BRANCH  14  15
ATOM     15  C   UNL     1     -30.330 -14.406  15.650  0.00  0.00    -0.030 A 
ATOM     16  C   UNL     1     -31.229 -13.718  14.817  0.00  0.00    +0.005 A 
ATOM     17  C   UNL     1     -31.021 -13.680  13.435  0.00  0.00    +0.000 A 
ATOM     18  C   UNL     1     -29.919 -14.332  12.876  0.00  0.00    +0.000 A 
ATOM     19  C   UNL     1     -29.026 -15.026  13.696  0.00  0.00    +0.000 A 
ATOM     20  C   UNL     1     -29.227 -15.062  15.078  0.00  0.00    +0.005 A 
ENDBRANCH  14  15
ENDBRANCH   1  14
TORSDOF 6
ENDMDL
MODEL 6
REMARK VINA RESULT:    -4.205      2.427      4.248
REMARK INTER + INTRA:          -6.222
REMARK INTER:                  -5.598
REMARK INTRA:                  -0.624
REMARK UNBOUND:                -0.665
REMARK  Name = 
REMARK  6 active torsions:
REMARK  status: ('A' for Active; 'I' for Inactive)
REMARK    1  A    between atoms: C_2  and  O_3
REMARK    2  A    between atoms: C_2  and  C_4
REMARK    3  A    between atoms: C_4  and  N_5
REMARK    4  A    between atoms: N_5  and  C_6
REMARK    5  A    between atoms: C_6  and  C_7
REMARK    6  A    between atoms: C_13  and  C_15
REMARK                            x       y       z     vdW  Elec       q    Type
REMARK                         _______ _______ _______ _____ _____    ______ ____
ROOT
ATOM      1  N   UNL     1     -29.958 -13.132  18.173  0.00  0.00    -0.282 N 
ATOM      2  C   UNL     1     -28.558 -13.003  18.461  0.00  0.00    +0.248 C 
ATOM      3  O   UNL     1     -27.786 -12.569  17.562  0.00  0.00    -0.270 OA
ENDROOT
BRANCH   2   4
ATOM      4  C   UNL     1     -28.011 -13.382  19.781  0.00  0.00    +0.044 A 
ATOM      5  C   UNL     1     -28.797 -13.553  20.934  0.00  0.00    +0.020 A 
ATOM      6  C   UNL     1     -28.064 -13.893  22.062  0.00  0.00    +0.046 A 
ATOM      7  S   UNL     1     -26.444 -13.981  21.626  0.00  0.00    -0.104 S 
ATOM      8  C   UNL     1     -26.652 -13.591  20.007  0.00  0.00    +0.058 A 
ENDBRANCH   2   4
BRANCH   1   9
ATOM      9  C   UNL     1     -30.811 -11.940  18.231  0.00  0.00    +0.228 C 
BRANCH   9  11
ATOM     10  O   UNL     1     -33.197 -12.026  18.179  0.00  0.00    -0.249 OA
ATOM     11  C   UNL     1     -32.142 -12.278  18.820  0.00  0.00    +0.322 C 
BRANCH  11  12
ATOM     12  O   UNL     1     -32.218 -12.821  20.097  0.00  0.00    -0.480 OA
ATOM     13  H   UNL     1     -32.291 -13.822  20.232  0.00  0.00    +0.295 HD
ENDBRANCH  11  12
ENDBRANCH   9  11
ENDBRANCH   1   9
BRANCH   1  14
ATOM     14  C   UNL     1     -30.446 -14.367  17.549  0.00  0.00    +0.143 C 
BRANCH  14  15
ATOM     15  C   UNL     1     -30.331 -14.280  16.051  0.00  0.00    -0.030 A 
ATOM     16  C   UNL     1     -29.214 -14.821  15.391  0.00  0.00    +0.005 A 
ATOM     17  C   UNL     1     -29.091 -14.704  14.004  0.00  0.00    +0.000 A 
ATOM     18  C   UNL     1     -30.078 -14.043  13.268  0.00  0.00    +0.000 A 
ATOM     19  C   UNL     1     -31.187 -13.494  13.917  0.00  0.00    +0.000 A 
ATOM     20  C   UNL     1     -31.316 -13.613  15.303  0.00  0.00    +0.005 A 
ENDBRANCH  14  15
ENDBRANCH   1  14
TORSDOF 6
ENDMDL
MODEL 7
REMARK VINA RESULT:    -4.131      2.780      4.401
REMARK INTER + INTRA:          -6.125
REMARK INTER:                  -5.520
REMARK INTRA:                  -0.604
REMARK UNBOUND:                -0.665
REMARK  Name = 
REMARK  6 active torsions:
REMARK  status: ('A' for Active; 'I' for Inactive)
REMARK    1  A    between atoms: C_2  and  O_3
REMARK    2  A    between atoms: C_2  and  C_4
REMARK    3  A    between atoms: C_4  and  N_5
REMARK    4  A    between atoms: N_5  and  C_6
REMARK    5  A    between atoms: C_6  and  C_7
REMARK    6  A    between atoms: C_13  and  C_15
REMARK                            x       y       z     vdW  Elec       q    Type
REMARK                         _______ _______ _______ _____ _____    ______ ____
ROOT
ATOM      1  N   UNL     1     -30.039 -12.687  18.652  0.00  0.00    -0.282 N 
ATOM      2  C   UNL     1     -28.608 -12.774  18.705  0.00  0.00    +0.248 C 
ATOM      3  O   UNL     1     -27.934 -12.379  17.714  0.00  0.00    -0.270 OA
ENDROOT
BRANCH   2   4
ATOM      4  C   UNL     1     -27.919 -13.327  19.890  0.00  0.00    +0.044 A 
ATOM      5  C   UNL     1     -28.575 -13.688  21.079  0.00  0.00    +0.020 A 
ATOM      6  C   UNL     1     -27.723 -14.170  22.062  0.00  0.00    +0.046 A 
ATOM      7  S   UNL     1     -26.157 -14.148  21.453  0.00  0.00    -0.104 S 
ATOM      8  C   UNL     1     -26.541 -13.529  19.940  0.00  0.00    +0.058 A 
ENDBRANCH   2   4
BRANCH   1   9
ATOM      9  C   UNL     1     -30.686 -11.397  18.921  0.00  0.00    +0.228 C 
BRANCH   9  11
ATOM     10  O   UNL     1     -29.404  -9.391  19.094  0.00  0.00    -0.249 OA
ATOM     11  C   UNL     1     -29.882 -10.280  18.340  0.00  0.00    +0.322 C 
BRANCH  11  12
ATOM     12  O   UNL     1     -29.708 -10.192  16.965  0.00  0.00    -0.480 OA
ATOM     13  H   UNL     1     -29.630  -9.291  16.507  0.00  0.00    +0.295 HD
ENDBRANCH  11  12
ENDBRANCH   9  11
ENDBRANCH   1   9
BRANCH   1  14
ATOM     14  C   UNL     1     -30.798 -13.790  18.051  0.00  0.00    +0.143 C 
BRANCH  14  15
ATOM     15  C   UNL     1     -30.711 -13.733  16.551  0.00  0.00    -0.030 A 
ATOM     16  C   UNL     1     -31.512 -12.833  15.826  0.00  0.00    +0.005 A 
ATOM     17  C   UNL     1     -31.458 -12.811  14.429  0.00  0.00    +0.000 A 
ATOM     18  C   UNL     1     -30.610 -13.687  13.748  0.00  0.00    +0.000 A 
ATOM     19  C   UNL     1     -29.817 -14.590  14.460  0.00  0.00    +0.000 A 
ATOM     20  C   UNL     1     -29.864 -14.613  15.856  0.00  0.00    +0.005 A 
ENDBRANCH  14  15
ENDBRANCH   1  14
TORSDOF 6
ENDMDL
MODEL 8
REMARK VINA RESULT:    -4.131      2.163      3.416
REMARK INTER + INTRA:          -6.124
REMARK INTER:                  -5.423
REMARK INTRA:                  -0.701
REMARK UNBOUND:                -0.665
REMARK  Name = 
REMARK  6 active torsions:
REMARK  status: ('A' for Active; 'I' for Inactive)
REMARK    1  A    between atoms: C_2  and  O_3
REMARK    2  A    between atoms: C_2  and  C_4
REMARK    3  A    between atoms: C_4  and  N_5
REMARK    4  A    between atoms: N_5  and  C_6
REMARK    5  A    between atoms: C_6  and  C_7
REMARK    6  A    between atoms: C_13  and  C_15
REMARK                            x       y       z     vdW  Elec       q    Type
REMARK                         _______ _______ _______ _____ _____    ______ ____
ROOT
ATOM      1  N   UNL     1     -31.230 -11.867  16.369  0.00  0.00    -0.282 N 
ATOM      2  C   UNL     1     -30.153 -12.712  16.798  0.00  0.00    +0.248 C 
ATOM      3  O   UNL     1     -29.458 -13.307  15.930  0.00  0.00    -0.270 OA
ENDROOT
BRANCH   2   4
ATOM      4  C   UNL     1     -29.857 -12.902  18.234  0.00  0.00    +0.044 A 
ATOM      5  C   UNL     1     -30.843 -12.981  19.233  0.00  0.00    +0.020 A 
ATOM      6  C   UNL     1     -30.329 -13.146  20.512  0.00  0.00    +0.046 A 
ATOM      7  S   UNL     1     -28.654 -13.194  20.400  0.00  0.00    -0.104 S 
ATOM      8  C   UNL     1     -28.560 -13.007  18.733  0.00  0.00    +0.058 A 
ENDBRANCH   2   4
BRANCH   1   9
ATOM      9  C   UNL     1     -30.929 -10.509  15.901  0.00  0.00    +0.228 C 
BRANCH   9  11
ATOM     10  O   UNL     1     -30.568  -9.386  17.977  0.00  0.00    -0.249 OA
ATOM     11  C   UNL     1     -31.285  -9.505  16.948  0.00  0.00    +0.322 C 
BRANCH  11  12
ATOM     12  O   UNL     1     -32.438  -8.741  16.813  0.00  0.00    -0.480 OA
ATOM     13  H   UNL     1     -33.325  -9.174  16.584  0.00  0.00    +0.295 HD
ENDBRANCH  11  12
ENDBRANCH   9  11
ENDBRANCH   1   9
BRANCH   1  14
ATOM     14  C   UNL     1     -32.549 -12.462  16.127  0.00  0.00    +0.143 C 
BRANCH  14  15
ATOM     15  C   UNL     1     -32.890 -12.409  14.663  0.00  0.00    -0.030 A 
ATOM     16  C   UNL     1     -34.025 -11.708  14.222  0.00  0.00    +0.005 A 
ATOM     17  C   UNL     1     -34.361 -11.694  12.865  0.00  0.00    +0.000 A 
ATOM     18  C   UNL     1     -33.571 -12.383  11.942  0.00  0.00    +0.000 A 
ATOM     19  C   UNL     1     -32.446 -13.090  12.373  0.00  0.00    +0.000 A 
ATOM     20  C   UNL     1     -32.104 -13.103  13.727  0.00  0.00    +0.005 A 
ENDBRANCH  14  15
ENDBRANCH   1  14
TORSDOF 6
ENDMDL
MODEL 9
REMARK VINA RESULT:    -4.088      2.388      3.295
REMARK INTER + INTRA:          -6.068
REMARK INTER:                  -5.218
REMARK INTRA:                  -0.851
REMARK UNBOUND:                -0.665
REMARK  Name = 
REMARK  6 active torsions:
REMARK  status: ('A' for Active; 'I' for Inactive)
REMARK    1  A    between atoms: C_2  and  O_3
REMARK    2  A    between atoms: C_2  and  C_4
REMARK    3  A    between atoms: C_4  and  N_5
REMARK    4  A    between atoms: N_5  and  C_6
REMARK    5  A    between atoms: C_6  and  C_7
REMARK    6  A    between atoms: C_13  and  C_15
REMARK                            x       y       z     vdW  Elec       q    Type
REMARK                         _______ _______ _______ _____ _____    ______ ____
ROOT
ATOM      1  N   UNL     1     -29.962 -13.279  18.320  0.00  0.00    -0.282 N 
ATOM      2  C   UNL     1     -30.400 -12.870  19.623  0.00  0.00    +0.248 C 
ATOM      3  O   UNL     1     -29.985 -13.500  20.634  0.00  0.00    -0.270 OA
ENDROOT
BRANCH   2   4
ATOM      4  C   UNL     1     -31.334 -11.737  19.794  0.00  0.00    +0.044 A 
ATOM      5  C   UNL     1     -30.943 -10.387  19.761  0.00  0.00    +0.020 A 
ATOM      6  C   UNL     1     -31.989  -9.498  19.961  0.00  0.00    +0.046 A 
ATOM      7  S   UNL     1     -33.397 -10.388  20.178  0.00  0.00    -0.104 S 
ATOM      8  C   UNL     1     -32.699 -11.907  20.021  0.00  0.00    +0.058 A 
ENDBRANCH   2   4
BRANCH   1   9
ATOM      9  C   UNL     1     -28.637 -12.858  17.848  0.00  0.00    +0.228 C 
BRANCH   9  11
ATOM     10  O   UNL     1     -27.118 -11.806  19.360  0.00  0.00    -0.249 OA
ATOM     11  C   UNL     1     -27.652 -12.878  18.971  0.00  0.00    +0.322 C 
BRANCH  11  12
ATOM     12  O   UNL     1     -27.285 -14.087  19.550  0.00  0.00    -0.480 OA
ATOM     13  H   UNL     1     -26.775 -14.110  20.425  0.00  0.00    +0.295 HD
ENDBRANCH  11  12
ENDBRANCH   9  11
ENDBRANCH   1   9
BRANCH   1  14
ATOM     14  C   UNL     1     -30.701 -14.334  17.618  0.00  0.00    +0.143 C 
BRANCH  14  15
ATOM     15  C   UNL     1     -31.032 -13.902  16.216  0.00  0.00    -0.030 A 
ATOM     16  C   UNL     1     -30.416 -14.522  15.116  0.00  0.00    +0.005 A 
ATOM     17  C   UNL     1     -30.696 -14.091  13.816  0.00  0.00    +0.000 A 
ATOM     18  C   UNL     1     -31.587 -13.036  13.606  0.00  0.00    +0.000 A 
ATOM     19  C   UNL     1     -32.197 -12.407  14.694  0.00  0.00    +0.000 A 
ATOM     20  C   UNL     1     -31.924 -12.838  15.995  0.00  0.00    +0.005 A 
ENDBRANCH  14  15
ENDBRANCH   1  14
TORSDOF 6
ENDMDL
