MODEL 1
REMARK VINA RESULT:    -4.556      0.000      0.000
REMARK INTER + INTRA:          -5.716
REMARK INTER:                  -5.089
REMARK INTRA:                  -0.628
REMARK UNBOUND:                -0.628
REMARK  Name = 
REMARK  2 active torsions:
REMARK  status: ('A' for Active; 'I' for Inactive)
REMARK    1  A    between atoms: C_7  and  S_9
REMARK    2  A    between atoms: S_9  and  C_10
REMARK                            x       y       z     vdW  Elec       q    Type
REMARK                         _______ _______ _______ _____ _____    ______ ____
ROOT
ATOM      1  C   UNL     1     -29.658 -12.932  17.456  0.00  0.00    +0.114 A 
ATOM      2  N   UNL     1     -28.404 -13.021  17.987  0.00  0.00    -0.228 NA
ATOM      3  C   UNL     1     -27.682 -11.901  18.310  0.00  0.00    +0.224 A 
ATOM      4  N   UNL     1     -28.208 -10.656  18.109  0.00  0.00    -0.218 NA
ATOM      5  C   UNL     1     -29.454 -10.563  17.586  0.00  0.00    +0.142 A 
ATOM      6  N   UNL     1     -30.127  -9.430  17.337  0.00  0.00    -0.346 N 
ATOM      7  C   UNL     1     -31.323  -9.825  16.842  0.00  0.00    +0.085 A 
ATOM      8  C   UNL     1     -31.402 -11.214  16.780  0.00  0.00    +0.031 A 
ATOM      9  C   UNL     1     -30.189 -11.661  17.260  0.00  0.00    +0.051 A 
ATOM     10  H   UNL     1     -29.802  -8.450  17.497  0.00  0.00    +0.167 HD
ENDROOT
BRANCH   1  11
ATOM     11  S   UNL     1     -30.568 -14.417  17.034  0.00  0.00    -0.066 S 
BRANCH  11  18
ATOM     12  F   UNL     1     -27.044 -15.062  13.331  0.00  0.00    -0.205 F 
ATOM     13  C   UNL     1     -28.312 -14.703  13.652  0.00  0.00    +0.125 A 
ATOM     14  C   UNL     1     -29.195 -14.292  12.649  0.00  0.00    +0.041 A 
ATOM     15  C   UNL     1     -30.503 -13.924  12.978  0.00  0.00    +0.042 A 
ATOM     16  C   UNL     1     -30.930 -13.963  14.310  0.00  0.00    +0.137 A 
ATOM     17  F   UNL     1     -32.205 -13.617  14.613  0.00  0.00    -0.204 F 
ATOM     18  C   UNL     1     -30.042 -14.367  15.319  0.00  0.00    +0.052 A 
ATOM     19  C   UNL     1     -28.734 -14.744  14.984  0.00  0.00    +0.056 A 
ENDBRANCH  11  18
ENDBRANCH   1  11
TORSDOF 2
ENDMDL
MODEL 2
REMARK VINA RESULT:    -4.230      1.581      3.045
REMARK INTER + INTRA:          -5.352
REMARK INTER:                  -4.670
REMARK INTRA:                  -0.683
REMARK UNBOUND:                -0.628
REMARK  Name = 
REMARK  2 active torsions:
REMARK  status: ('A' for Active; 'I' for Inactive)
REMARK    1  A    between atoms: C_7  and  S_9
REMARK    2  A    between atoms: S_9  and  C_10
REMARK                            x       y       z     vdW  Elec       q    Type
REMARK                         _______ _______ _______ _____ _____    ______ ____
ROOT
ATOM      1  C   UNL     1     -30.738 -12.092  17.282  0.00  0.00    +0.114 A 
ATOM      2  N   UNL     1     -30.995 -10.886  16.696  0.00  0.00    -0.228 NA
ATOM      3  C   UNL     1     -30.182  -9.802  16.903  0.00  0.00    +0.224 A 
ATOM      4  N   UNL     1     -29.081  -9.905  17.706  0.00  0.00    -0.218 NA
ATOM      5  C   UNL     1     -28.820 -11.100  18.286  0.00  0.00    +0.142 A 
ATOM      6  N   UNL     1     -27.782 -11.383  19.087  0.00  0.00    -0.346 N 
ATOM      7  C   UNL     1     -27.922 -12.691  19.408  0.00  0.00    +0.085 A 
ATOM      8  C   UNL     1     -29.055 -13.232  18.804  0.00  0.00    +0.031 A 
ATOM      9  C   UNL     1     -29.612 -12.190  18.094  0.00  0.00    +0.051 A 
ATOM     10  H   UNL     1     -27.022 -10.736  19.395  0.00  0.00    +0.167 HD
ENDROOT
BRANCH   1  11
ATOM     11  S   UNL     1     -31.830 -13.484  17.000  0.00  0.00    -0.066 S 
BRANCH  11  18
ATOM     12  F   UNL     1     -32.260 -12.624  11.938  0.00  0.00    -0.205 F 
ATOM     13  C   UNL     1     -31.572 -13.226  12.940  0.00  0.00    +0.125 A 
ATOM     14  C   UNL     1     -30.450 -14.006  12.646  0.00  0.00    +0.041 A 
ATOM     15  C   UNL     1     -29.739 -14.624  13.679  0.00  0.00    +0.042 A 
ATOM     16  C   UNL     1     -30.151 -14.467  15.007  0.00  0.00    +0.137 A 
ATOM     17  F   UNL     1     -29.444 -15.062  16.000  0.00  0.00    -0.204 F 
ATOM     18  C   UNL     1     -31.282 -13.692  15.303  0.00  0.00    +0.052 A 
ATOM     19  C   UNL     1     -31.987 -13.066  14.266  0.00  0.00    +0.056 A 
ENDBRANCH  11  18
ENDBRANCH   1  11
TORSDOF 2
ENDMDL
MODEL 3
REMARK VINA RESULT:    -4.062      2.989      5.557
REMARK INTER + INTRA:          -5.165
REMARK INTER:                  -4.601
REMARK INTRA:                  -0.563
REMARK UNBOUND:                -0.628
REMARK  Name = 
REMARK  2 active torsions:
REMARK  status: ('A' for Active; 'I' for Inactive)
REMARK    1  A    between atoms: C_7  and  S_9
REMARK    2  A    between atoms: S_9  and  C_10
REMARK                            x       y       z     vdW  Elec       q    Type
REMARK                         _______ _______ _______ _____ _____    ______ ____
ROOT
ATOM      1  C   UNL     1     -31.030 -13.965  15.051  0.00  0.00    +0.114 A 
ATOM      2  N   UNL     1     -32.050 -13.399  14.343  0.00  0.00    -0.228 NA
ATOM      3  C   UNL     1     -31.958 -13.196  12.991  0.00  0.00    +0.224 A 
ATOM      4  N   UNL     1     -30.831 -13.564  12.311  0.00  0.00    -0.218 NA
ATOM      5  C   UNL     1     -29.816 -14.130  13.008  0.00  0.00    +0.142 A 
ATOM      6  N   UNL     1     -28.651 -14.561  12.503  0.00  0.00    -0.346 N 
ATOM      7  C   UNL     1     -27.967 -15.062  13.559  0.00  0.00    +0.085 A 
ATOM      8  C   UNL     1     -28.708 -14.946  14.733  0.00  0.00    +0.031 A 
ATOM      9  C   UNL     1     -29.888 -14.342  14.351  0.00  0.00    +0.051 A 
ATOM     10  H   UNL     1     -28.337 -14.524  11.508  0.00  0.00    +0.167 HD
ENDROOT
BRANCH   1  11
ATOM     11  S   UNL     1     -31.180 -14.204  16.820  0.00  0.00    -0.066 S 
BRANCH  11  18
ATOM     12  F   UNL     1     -30.782  -9.077  16.490  0.00  0.00    -0.205 F 
ATOM     13  C   UNL     1     -30.270 -10.234  16.979  0.00  0.00    +0.125 A 
ATOM     14  C   UNL     1     -29.112 -10.208  17.763  0.00  0.00    +0.041 A 
ATOM     15  C   UNL     1     -28.585 -11.399  18.270  0.00  0.00    +0.042 A 
ATOM     16  C   UNL     1     -29.211 -12.619  17.990  0.00  0.00    +0.137 A 
ATOM     17  F   UNL     1     -28.696 -13.765  18.500  0.00  0.00    -0.204 F 
ATOM     18  C   UNL     1     -30.367 -12.648  17.196  0.00  0.00    +0.052 A 
ATOM     19  C   UNL     1     -30.898 -11.450  16.698  0.00  0.00    +0.056 A 
ENDBRANCH  11  18
ENDBRANCH   1  11
TORSDOF 2
ENDMDL
MODEL 4
REMARK VINA RESULT:    -4.042      2.409      4.148
REMARK INTER + INTRA:          -5.142
REMARK INTER:                  -4.560
REMARK INTRA:                  -0.582
REMARK UNBOUND:                -0.628
REMARK  Name = 
REMARK  2 active torsions:
REMARK  status: ('A' for Active; 'I' for Inactive)
REMARK    1  A    between atoms: C_7  and  S_9
REMARK    2  A    between atoms: S_9  and  C_10
REMARK                            x       y       z     vdW  Elec       q    Type
REMARK                         _______ _______ _______ _____ _____    ______ ____
ROOT
ATOM      1  C   UNL     1     -29.158 -12.250  19.137  0.00  0.00    +0.114 A 
ATOM      2  N   UNL     1     -28.508 -11.482  18.214  0.00  0.00    -0.228 NA
ATOM      3  C   UNL     1     -27.140 -11.411  18.176  0.00  0.00    +0.224 A 
ATOM      4  N   UNL     1     -26.385 -12.118  19.069  0.00  0.00    -0.218 NA
ATOM      5  C   UNL     1     -27.024 -12.884  19.986  0.00  0.00    +0.142 A 
ATOM      6  N   UNL     1     -26.445 -13.649  20.922  0.00  0.00    -0.346 N 
ATOM      7  C   UNL     1     -27.468 -14.238  21.586  0.00  0.00    +0.085 A 
ATOM      8  C   UNL     1     -28.696 -13.841  21.062  0.00  0.00    +0.031 A 
ATOM      9  C   UNL     1     -28.382 -12.971  20.040  0.00  0.00    +0.051 A 
ATOM     10  H   UNL     1     -25.424 -13.772  21.100  0.00  0.00    +0.167 HD
ENDROOT
BRANCH   1  11
ATOM     11  S   UNL     1     -30.948 -12.308  19.166  0.00  0.00    -0.066 S 
BRANCH  11  18
ATOM     12  F   UNL     1     -31.728 -10.980  14.249  0.00  0.00    -0.205 F 
ATOM     13  C   UNL     1     -31.441 -11.966  15.134  0.00  0.00    +0.125 A 
ATOM     14  C   UNL     1     -31.240 -13.274  14.680  0.00  0.00    +0.041 A 
ATOM     15  C   UNL     1     -30.941 -14.291  15.592  0.00  0.00    +0.042 A 
ATOM     16  C   UNL     1     -30.847 -14.005  16.958  0.00  0.00    +0.137 A 
ATOM     17  F   UNL     1     -30.543 -14.998  17.829  0.00  0.00    -0.204 F 
ATOM     18  C   UNL     1     -31.058 -12.695  17.416  0.00  0.00    +0.052 A 
ATOM     19  C   UNL     1     -31.348 -11.676  16.498  0.00  0.00    +0.056 A 
ENDBRANCH  11  18
ENDBRANCH   1  11
TORSDOF 2
ENDMDL
MODEL 5
REMARK VINA RESULT:    -3.970      2.802      4.806
REMARK INTER + INTRA:          -5.062
REMARK INTER:                  -4.406
REMARK INTRA:                  -0.656
REMARK UNBOUND:                -0.628
REMARK  Name = 
REMARK  2 active torsions:
REMARK  status: ('A' for Active; 'I' for Inactive)
REMARK    1  A    between atoms: C_7  and  S_9
REMARK    2  A    between atoms: S_9  and  C_10
REMARK                            x       y       z     vdW  Elec       q    Type
REMARK                         _______ _______ _______ _____ _____    ______ ____
ROOT
ATOM      1  C   UNL     1     -30.278 -14.372  15.479  0.00  0.00    +0.114 A 
ATOM      2  N   UNL     1     -29.061 -14.972  15.321  0.00  0.00    -0.228 NA
ATOM      3  C   UNL     1     -28.461 -15.062  14.092  0.00  0.00    +0.224 A 
ATOM      4  N   UNL     1     -29.072 -14.547  12.984  0.00  0.00    -0.218 NA
ATOM      5  C   UNL     1     -30.277 -13.947  13.135  0.00  0.00    +0.142 A 
ATOM      6  N   UNL     1     -31.007 -13.378  12.165  0.00  0.00    -0.346 N 
ATOM      7  C   UNL     1     -32.113 -12.899  12.783  0.00  0.00    +0.085 A 
ATOM      8  C   UNL     1     -32.076 -13.169  14.148  0.00  0.00    +0.031 A 
ATOM      9  C   UNL     1     -30.890 -13.844  14.346  0.00  0.00    +0.051 A 
ATOM     10  H   UNL     1     -30.773 -13.311  11.150  0.00  0.00    +0.167 HD
ENDROOT
BRANCH   1  11
ATOM     11  S   UNL     1     -31.038 -14.283  17.098  0.00  0.00    -0.066 S 
BRANCH  11  18
ATOM     12  F   UNL     1     -26.828 -12.004  19.005  0.00  0.00    -0.205 F 
ATOM     13  C   UNL     1     -28.068 -11.855  18.477  0.00  0.00    +0.125 A 
ATOM     14  C   UNL     1     -28.605 -10.574  18.308  0.00  0.00    +0.041 A 
ATOM     15  C   UNL     1     -29.882 -10.419  17.761  0.00  0.00    +0.042 A 
ATOM     16  C   UNL     1     -30.628 -11.543  17.388  0.00  0.00    +0.137 A 
ATOM     17  F   UNL     1     -31.860 -11.377  16.847  0.00  0.00    -0.204 F 
ATOM     18  C   UNL     1     -30.095 -12.829  17.566  0.00  0.00    +0.052 A 
ATOM     19  C   UNL     1     -28.810 -12.980  18.105  0.00  0.00    +0.056 A 
ENDBRANCH  11  18
ENDBRANCH   1  11
TORSDOF 2
ENDMDL
MODEL 6
REMARK VINA RESULT:    -3.928      1.325      2.244
REMARK INTER + INTRA:          -5.015
REMARK INTER:                  -4.420
REMARK INTRA:                  -0.596
REMARK UNBOUND:                -0.628
REMARK  Name = 
REMARK  2 active torsions:
REMARK  status: ('A' for Active; 'I' for Inactive)
REMARK    1  A    between atoms: C_7  and  S_9
REMARK    2  A    between atoms: S_9  and  C_10
REMARK                            x       y       z     vdW  Elec       q    Type
REMARK                         _______ _______ _______ _____ _____    ______ ____
ROOT
ATOM      1  C   UNL     1     -30.624 -12.279  17.299  0.00  0.00    +0.114 A 
ATOM      2  N   UNL     1     -29.361 -12.152  17.801  0.00  0.00    -0.228 NA
ATOM      3  C   UNL     1     -28.792 -10.921  18.005  0.00  0.00    +0.224 A 
ATOM      4  N   UNL     1     -29.486  -9.781  17.712  0.00  0.00    -0.218 NA
ATOM      5  C   UNL     1     -30.741  -9.902  17.217  0.00  0.00    +0.142 A 
ATOM      6  N   UNL     1     -31.565  -8.896  16.890  0.00  0.00    -0.346 N 
ATOM      7  C   UNL     1     -32.705  -9.490  16.464  0.00  0.00    +0.085 A 
ATOM      8  C   UNL     1     -32.596 -10.877  16.526  0.00  0.00    +0.031 A 
ATOM      9  C   UNL     1     -31.326 -11.114  17.009  0.00  0.00    +0.051 A 
ATOM     10  H   UNL     1     -31.374  -7.871  16.954  0.00  0.00    +0.167 HD
ENDROOT
BRANCH   1  11
ATOM     11  S   UNL     1     -31.331 -13.904  17.034  0.00  0.00    -0.066 S 
BRANCH  11  18
ATOM     12  F   UNL     1     -31.938 -13.431  11.939  0.00  0.00    -0.205 F 
ATOM     13  C   UNL     1     -31.110 -13.744  12.966  0.00  0.00    +0.125 A 
ATOM     14  C   UNL     1     -29.795 -14.142  12.707  0.00  0.00    +0.041 A 
ATOM     15  C   UNL     1     -28.940 -14.462  13.766  0.00  0.00    +0.042 A 
ATOM     16  C   UNL     1     -29.399 -14.389  15.086  0.00  0.00    +0.137 A 
ATOM     17  F   UNL     1     -28.555 -14.689  16.104  0.00  0.00    -0.204 F 
ATOM     18  C   UNL     1     -30.722 -13.998  15.348  0.00  0.00    +0.052 A 
ATOM     19  C   UNL     1     -31.572 -13.669  14.284  0.00  0.00    +0.056 A 
ENDBRANCH  11  18
ENDBRANCH   1  11
TORSDOF 2
ENDMDL
MODEL 7
REMARK VINA RESULT:    -3.872      2.861      5.178
REMARK INTER + INTRA:          -4.953
REMARK INTER:                  -4.419
REMARK INTRA:                  -0.534
REMARK UNBOUND:                -0.628
REMARK  Name = 
REMARK  2 active torsions:
REMARK  status: ('A' for Active; 'I' for Inactive)
REMARK    1  A    between atoms: C_7  and  S_9
REMARK    2  A    between atoms: S_9  and  C_10
REMARK                            x       y       z     vdW  Elec       q    Type
REMARK                         _______ _______ _______ _____ _____    ______ ____
ROOT
ATOM      1  C   UNL     1     -30.132 -14.400  15.374  0.00  0.00    +0.114 A 
ATOM      2  N   UNL     1     -28.881 -14.938  15.286  0.00  0.00    -0.228 NA
ATOM      3  C   UNL     1     -28.237 -15.061  14.081  0.00  0.00    +0.224 A 
ATOM      4  N   UNL     1     -28.839 -14.640  12.929  0.00  0.00    -0.218 NA
ATOM      5  C   UNL     1     -30.079 -14.102  13.012  0.00  0.00    +0.142 A 
ATOM      6  N   UNL     1     -30.807 -13.627  11.990  0.00  0.00    -0.346 N 
ATOM      7  C   UNL     1     -31.957 -13.178  12.548  0.00  0.00    +0.085 A 
ATOM      8  C   UNL     1     -31.949 -13.372  13.927  0.00  0.00    +0.031 A 
ATOM      9  C   UNL     1     -30.735 -13.969  14.197  0.00  0.00    +0.051 A 
ATOM     10  H   UNL     1     -30.544 -13.602  10.980  0.00  0.00    +0.167 HD
ENDROOT
BRANCH   1  11
ATOM     11  S   UNL     1     -30.948 -14.267  16.964  0.00  0.00    -0.066 S 
BRANCH  11  18
ATOM     12  F   UNL     1     -30.714  -9.126  16.718  0.00  0.00    -0.205 F 
ATOM     13  C   UNL     1     -30.150 -10.275  17.166  0.00  0.00    +0.125 A 
ATOM     14  C   UNL     1     -28.967 -10.228  17.909  0.00  0.00    +0.041 A 
ATOM     15  C   UNL     1     -28.386 -11.412  18.374  0.00  0.00    +0.042 A 
ATOM     16  C   UNL     1     -28.985 -12.645  18.093  0.00  0.00    +0.137 A 
ATOM     17  F   UNL     1     -28.419 -13.784  18.562  0.00  0.00    -0.204 F 
ATOM     18  C   UNL     1     -30.168 -12.694  17.339  0.00  0.00    +0.052 A 
ATOM     19  C   UNL     1     -30.752 -11.505  16.884  0.00  0.00    +0.056 A 
ENDBRANCH  11  18
ENDBRANCH   1  11
TORSDOF 2
ENDMDL
