MODEL 1
REMARK VINA RESULT:    -5.269      0.000      0.000
REMARK INTER + INTRA:          -8.089
REMARK INTER:                  -6.964
REMARK INTRA:                  -1.125
REMARK UNBOUND:                -1.125
REMARK  Name = 
REMARK  7 active torsions:
REMARK  status: ('A' for Active; 'I' for Inactive)
REMARK    1  A    between atoms: C_1  and  C_2
REMARK    2  A    between atoms: C_7  and  C_8
REMARK    3  A    between atoms: C_9  and  C_10
REMARK    4  A    between atoms: C_9  and  C_15
REMARK    5  A    between atoms: C_10  and  C_11
REMARK    6  A    between atoms: C_11  and  C_12
REMARK    7  A    between atoms: C_12  and  O_14
REMARK                            x       y       z     vdW  Elec       q    Type
REMARK                         _______ _______ _______ _____ _____    ______ ____
ROOT
ATOM      1  C   UNL     1     -31.631 -13.021  15.595  0.00  0.00    +0.014 C 
ATOM      2  C   UNL     1     -30.939 -12.078  16.271  0.00  0.00    -0.014 C 
ENDROOT
BRANCH   2   3
ATOM      3  C   UNL     1     -30.236 -12.428  17.532  0.00  0.00    +0.106 A 
ATOM      4  N   UNL     1     -28.884 -12.393  17.656  0.00  0.00    -0.239 NA
ATOM      5  C   UNL     1     -28.488 -12.755  18.902  0.00  0.00    +0.079 A 
ATOM      6  C   UNL     1     -27.158 -12.811  19.321  0.00  0.00    +0.029 A 
ATOM      7  C   UNL     1     -26.883 -13.203  20.643  0.00  0.00    +0.002 A 
ATOM      8  C   UNL     1     -27.933 -13.531  21.524  0.00  0.00    +0.001 A 
ATOM      9  C   UNL     1     -29.268 -13.470  21.091  0.00  0.00    +0.017 A 
ATOM     10  C   UNL     1     -29.512 -13.079  19.777  0.00  0.00    +0.040 A 
ATOM     11  S   UNL     1     -30.978 -12.914  18.984  0.00  0.00    -0.067 S 
ENDBRANCH   2   3
BRANCH   1  18
ATOM     12  C   UNL     1     -30.638 -14.016  12.989  0.00  0.00    +0.044 C 
ATOM     13  C   UNL     1     -31.911 -13.220  13.099  0.00  0.00    -0.043 A 
ATOM     14  C   UNL     1     -32.646 -12.919  11.938  0.00  0.00    +0.004 A 
ATOM     15  C   UNL     1     -33.830 -12.182  12.022  0.00  0.00    +0.000 A 
ATOM     16  C   UNL     1     -34.295 -11.739  13.261  0.00  0.00    +0.001 A 
ATOM     17  C   UNL     1     -33.572 -12.024  14.422  0.00  0.00    +0.008 A 
ATOM     18  C   UNL     1     -32.373 -12.748  14.349  0.00  0.00    -0.022 A 
ENDBRANCH   1  18
BRANCH   2  19
ATOM     19  C   UNL     1     -30.915 -10.633  15.813  0.00  0.00    +0.049 C 
BRANCH  19  20
ATOM     20  C   UNL     1     -31.209  -9.689  16.983  0.00  0.00    +0.125 C 
BRANCH  20  21
ATOM     21  C   UNL     1     -32.673  -9.392  17.060  0.00  0.00    +0.305 C 
ATOM     22  O   UNL     1     -33.418 -10.075  17.811  0.00  0.00    -0.251 OA
BRANCH  21  23
ATOM     23  O   UNL     1     -33.202  -8.329  16.334  0.00  0.00    -0.481 OA
ATOM     24  H   UNL     1     -34.197  -8.137  16.345  0.00  0.00    +0.295 HD
ENDBRANCH  21  23
ENDBRANCH  20  21
ENDBRANCH  19  20
ENDBRANCH   2  19
TORSDOF 6
ENDMDL
MODEL 2
REMARK VINA RESULT:    -4.979      3.292      4.931
REMARK INTER + INTRA:          -7.705
REMARK INTER:                  -6.659
REMARK INTRA:                  -1.045
REMARK UNBOUND:                -1.125
REMARK  Name = 
REMARK  7 active torsions:
REMARK  status: ('A' for Active; 'I' for Inactive)
REMARK    1  A    between atoms: C_1  and  C_2
REMARK    2  A    between atoms: C_7  and  C_8
REMARK    3  A    between atoms: C_9  and  C_10
REMARK    4  A    between atoms: C_9  and  C_15
REMARK    5  A    between atoms: C_10  and  C_11
REMARK    6  A    between atoms: C_11  and  C_12
REMARK    7  A    between atoms: C_12  and  O_14
REMARK                            x       y       z     vdW  Elec       q    Type
REMARK                         _______ _______ _______ _____ _____    ______ ____
ROOT
ATOM      1  C   UNL     1     -31.615 -12.875  16.702  0.00  0.00    +0.014 C 
ATOM      2  C   UNL     1     -31.107 -11.852  17.421  0.00  0.00    -0.014 C 
ENDROOT
BRANCH   2   3
ATOM      3  C   UNL     1     -31.890 -11.262  18.537  0.00  0.00    +0.106 A 
ATOM      4  N   UNL     1     -32.363  -9.990  18.513  0.00  0.00    -0.239 NA
ATOM      5  C   UNL     1     -33.045  -9.689  19.648  0.00  0.00    +0.079 A 
ATOM      6  C   UNL     1     -33.644  -8.455  19.903  0.00  0.00    +0.029 A 
ATOM      7  C   UNL     1     -34.323  -8.274  21.121  0.00  0.00    +0.002 A 
ATOM      8  C   UNL     1     -34.393  -9.322  22.062  0.00  0.00    +0.001 A 
ATOM      9  C   UNL     1     -33.786 -10.559  21.793  0.00  0.00    +0.017 A 
ATOM     10  C   UNL     1     -33.121 -10.711  20.579  0.00  0.00    +0.040 A 
ATOM     11  S   UNL     1     -32.312 -12.052  19.984  0.00  0.00    -0.067 S 
ENDBRANCH   2   3
BRANCH   1  18
ATOM     12  C   UNL     1     -32.388 -12.256  13.912  0.00  0.00    +0.044 C 
ATOM     13  C   UNL     1     -31.267 -13.210  14.229  0.00  0.00    -0.043 A 
ATOM     14  C   UNL     1     -30.576 -13.844  13.181  0.00  0.00    +0.004 A 
ATOM     15  C   UNL     1     -29.532 -14.732  13.457  0.00  0.00    +0.000 A 
ATOM     16  C   UNL     1     -29.168 -14.996  14.778  0.00  0.00    +0.001 A 
ATOM     17  C   UNL     1     -29.850 -14.380  15.829  0.00  0.00    +0.008 A 
ATOM     18  C   UNL     1     -30.910 -13.499  15.566  0.00  0.00    -0.022 A 
ENDBRANCH   1  18
BRANCH   2  19
ATOM     19  C   UNL     1     -29.770 -11.227  17.074  0.00  0.00    +0.049 C 
BRANCH  19  20
ATOM     20  C   UNL     1     -28.956 -10.949  18.342  0.00  0.00    +0.125 C 
BRANCH  20  21
ATOM     21  C   UNL     1     -27.662 -11.697  18.306  0.00  0.00    +0.305 C 
ATOM     22  O   UNL     1     -27.660 -12.954  18.224  0.00  0.00    -0.251 OA
BRANCH  21  23
ATOM     23  O   UNL     1     -26.459 -10.998  18.319  0.00  0.00    -0.481 OA
ATOM     24  H   UNL     1     -25.600 -11.446  18.618  0.00  0.00    +0.295 HD
ENDBRANCH  21  23
ENDBRANCH  20  21
ENDBRANCH  19  20
ENDBRANCH   2  19
TORSDOF 6
ENDMDL
MODEL 3
REMARK VINA RESULT:    -4.794      3.282      4.770
REMARK INTER + INTRA:          -7.461
REMARK INTER:                  -6.439
REMARK INTRA:                  -1.022
REMARK UNBOUND:                -1.125
REMARK  Name = 
REMARK  7 active torsions:
REMARK  status: ('A' for Active; 'I' for Inactive)
REMARK    1  A    between atoms: C_1  and  C_2
REMARK    2  A    between atoms: C_7  and  C_8
REMARK    3  A    between atoms: C_9  and  C_10
REMARK    4  A    between atoms: C_9  and  C_15
REMARK    5  A    between atoms: C_10  and  C_11
REMARK    6  A    between atoms: C_11  and  C_12
REMARK    7  A    between atoms: C_12  and  O_14
REMARK                            x       y       z     vdW  Elec       q    Type
REMARK                         _______ _______ _______ _____ _____    ______ ____
ROOT
ATOM      1  C   UNL     1     -32.393 -10.835  15.290  0.00  0.00    +0.014 C 
ATOM      2  C   UNL     1     -32.538 -11.243  16.568  0.00  0.00    -0.014 C 
ENDROOT
BRANCH   2   3
ATOM      3  C   UNL     1     -32.308 -10.292  17.686  0.00  0.00    +0.106 A 
ATOM      4  N   UNL     1     -33.306  -9.852  18.496  0.00  0.00    -0.239 NA
ATOM      5  C   UNL     1     -32.842  -8.992  19.438  0.00  0.00    +0.079 A 
ATOM      6  C   UNL     1     -33.638  -8.382  20.408  0.00  0.00    +0.029 A 
ATOM      7  C   UNL     1     -33.031  -7.509  21.328  0.00  0.00    +0.002 A 
ATOM      8  C   UNL     1     -31.644  -7.260  21.267  0.00  0.00    +0.001 A 
ATOM      9  C   UNL     1     -30.854  -7.881  20.287  0.00  0.00    +0.017 A 
ATOM     10  C   UNL     1     -31.481  -8.740  19.388  0.00  0.00    +0.040 A 
ATOM     11  S   UNL     1     -30.811  -9.615  18.126  0.00  0.00    -0.067 S 
ENDBRANCH   2   3
BRANCH   1  18
ATOM     12  C   UNL     1     -34.834 -10.657  13.623  0.00  0.00    +0.044 C 
ATOM     13  C   UNL     1     -33.740 -11.646  13.321  0.00  0.00    -0.043 A 
ATOM     14  C   UNL     1     -33.880 -12.527  12.233  0.00  0.00    +0.004 A 
ATOM     15  C   UNL     1     -32.874 -13.451  11.938  0.00  0.00    +0.000 A 
ATOM     16  C   UNL     1     -31.720 -13.507  12.721  0.00  0.00    +0.001 A 
ATOM     17  C   UNL     1     -31.572 -12.644  13.809  0.00  0.00    +0.008 A 
ATOM     18  C   UNL     1     -32.581 -11.723  14.126  0.00  0.00    -0.022 A 
ENDBRANCH   1  18
BRANCH   2  19
ATOM     19  C   UNL     1     -32.863 -12.684  16.908  0.00  0.00    +0.049 C 
BRANCH  19  20
ATOM     20  C   UNL     1     -31.917 -13.213  17.989  0.00  0.00    +0.125 C 
BRANCH  20  21
ATOM     21  C   UNL     1     -31.066 -14.316  17.446  0.00  0.00    +0.305 C 
ATOM     22  O   UNL     1     -31.311 -14.801  16.310  0.00  0.00    -0.251 OA
BRANCH  21  23
ATOM     23  O   UNL     1     -29.975 -14.773  18.179  0.00  0.00    -0.481 OA
ATOM     24  H   UNL     1     -29.191 -14.162  18.381  0.00  0.00    +0.295 HD
ENDBRANCH  21  23
ENDBRANCH  20  21
ENDBRANCH  19  20
ENDBRANCH   2  19
TORSDOF 6
ENDMDL
MODEL 4
REMARK VINA RESULT:    -4.595      1.876      7.002
REMARK INTER + INTRA:          -7.197
REMARK INTER:                  -6.026
REMARK INTRA:                  -1.171
REMARK UNBOUND:                -1.125
REMARK  Name = 
REMARK  7 active torsions:
REMARK  status: ('A' for Active; 'I' for Inactive)
REMARK    1  A    between atoms: C_1  and  C_2
REMARK    2  A    between atoms: C_7  and  C_8
REMARK    3  A    between atoms: C_9  and  C_10
REMARK    4  A    between atoms: C_9  and  C_15
REMARK    5  A    between atoms: C_10  and  C_11
REMARK    6  A    between atoms: C_11  and  C_12
REMARK    7  A    between atoms: C_12  and  O_14
REMARK                            x       y       z     vdW  Elec       q    Type
REMARK                         _______ _______ _______ _____ _____    ______ ____
ROOT
ATOM      1  C   UNL     1     -30.134 -13.281  18.056  0.00  0.00    +0.014 C 
ATOM      2  C   UNL     1     -30.224 -12.276  17.160  0.00  0.00    -0.014 C 
ENDROOT
BRANCH   2   3
ATOM      3  C   UNL     1     -31.002 -12.459  15.907  0.00  0.00    +0.106 A 
ATOM      4  N   UNL     1     -32.210 -11.874  15.698  0.00  0.00    -0.239 NA
ATOM      5  C   UNL     1     -32.716 -12.196  14.480  0.00  0.00    +0.079 A 
ATOM      6  C   UNL     1     -33.941 -11.741  13.991  0.00  0.00    +0.029 A 
ATOM      7  C   UNL     1     -34.349 -12.150  12.709  0.00  0.00    +0.002 A 
ATOM      8  C   UNL     1     -33.533 -13.003  11.938  0.00  0.00    +0.001 A 
ATOM      9  C   UNL     1     -32.302 -13.453  12.442  0.00  0.00    +0.017 A 
ATOM     10  C   UNL     1     -31.923 -13.033  13.713  0.00  0.00    +0.040 A 
ATOM     11  S   UNL     1     -30.530 -13.399  14.570  0.00  0.00    -0.067 S 
ENDBRANCH   2   3
BRANCH   1  18
ATOM     12  C   UNL     1     -31.442 -12.456  20.581  0.00  0.00    +0.044 C 
ATOM     13  C   UNL     1     -29.977 -12.796  20.524  0.00  0.00    -0.043 A 
ATOM     14  C   UNL     1     -29.195 -12.703  21.689  0.00  0.00    +0.004 A 
ATOM     15  C   UNL     1     -27.833 -13.015  21.654  0.00  0.00    +0.000 A 
ATOM     16  C   UNL     1     -27.238 -13.423  20.460  0.00  0.00    +0.001 A 
ATOM     17  C   UNL     1     -28.000 -13.512  19.293  0.00  0.00    +0.008 A 
ATOM     18  C   UNL     1     -29.364 -13.185  19.311  0.00  0.00    -0.022 A 
ENDBRANCH   1  18
BRANCH   2  19
ATOM     19  C   UNL     1     -29.486 -10.967  17.360  0.00  0.00    +0.049 C 
BRANCH  19  20
ATOM     20  C   UNL     1     -30.469  -9.796  17.439  0.00  0.00    +0.125 C 
BRANCH  20  21
ATOM     21  C   UNL     1     -30.615  -9.329  18.852  0.00  0.00    +0.305 C 
ATOM     22  O   UNL     1     -31.744  -8.976  19.287  0.00  0.00    -0.251 OA
BRANCH  21  23
ATOM     23  O   UNL     1     -29.511  -9.330  19.698  0.00  0.00    -0.481 OA
ATOM     24  H   UNL     1     -28.575  -9.465  19.332  0.00  0.00    +0.295 HD
ENDBRANCH  21  23
ENDBRANCH  20  21
ENDBRANCH  19  20
ENDBRANCH   2  19
TORSDOF 6
ENDMDL
MODEL 5
REMARK VINA RESULT:    -4.562      3.366      5.345
REMARK INTER + INTRA:          -7.155
REMARK INTER:                  -5.932
REMARK INTRA:                  -1.222
REMARK UNBOUND:                -1.125
REMARK  Name = 
REMARK  7 active torsions:
REMARK  status: ('A' for Active; 'I' for Inactive)
REMARK    1  A    between atoms: C_1  and  C_2
REMARK    2  A    between atoms: C_7  and  C_8
REMARK    3  A    between atoms: C_9  and  C_10
REMARK    4  A    between atoms: C_9  and  C_15
REMARK    5  A    between atoms: C_10  and  C_11
REMARK    6  A    between atoms: C_11  and  C_12
REMARK    7  A    between atoms: C_12  and  O_14
REMARK                            x       y       z     vdW  Elec       q    Type
REMARK                         _______ _______ _______ _____ _____    ______ ____
ROOT
ATOM      1  C   UNL     1     -30.886 -10.974  16.811  0.00  0.00    +0.014 C 
ATOM      2  C   UNL     1     -31.743 -10.846  17.846  0.00  0.00    -0.014 C 
ENDROOT
BRANCH   2   3
ATOM      3  C   UNL     1     -31.891  -9.538  18.534  0.00  0.00    +0.106 A 
ATOM      4  N   UNL     1     -30.983  -9.069  19.429  0.00  0.00    -0.239 NA
ATOM      5  C   UNL     1     -31.344  -7.856  19.918  0.00  0.00    +0.079 A 
ATOM      6  C   UNL     1     -30.604  -7.130  20.852  0.00  0.00    +0.029 A 
ATOM      7  C   UNL     1     -31.092  -5.882  21.277  0.00  0.00    +0.002 A 
ATOM      8  C   UNL     1     -32.305  -5.377  20.765  0.00  0.00    +0.001 A 
ATOM      9  C   UNL     1     -33.039  -6.116  19.824  0.00  0.00    +0.017 A 
ATOM     10  C   UNL     1     -32.534  -7.349  19.422  0.00  0.00    +0.040 A 
ATOM     11  S   UNL     1     -33.177  -8.444  18.328  0.00  0.00    -0.067 S 
ENDBRANCH   2   3
BRANCH   1  18
ATOM     12  C   UNL     1     -32.287 -11.536  14.263  0.00  0.00    +0.044 C 
ATOM     13  C   UNL     1     -31.325 -12.523  14.872  0.00  0.00    -0.043 A 
ATOM     14  C   UNL     1     -31.094 -13.754  14.233  0.00  0.00    +0.004 A 
ATOM     15  C   UNL     1     -30.205 -14.681  14.783  0.00  0.00    +0.000 A 
ATOM     16  C   UNL     1     -29.538 -14.391  15.974  0.00  0.00    +0.001 A 
ATOM     17  C   UNL     1     -29.763 -13.175  16.624  0.00  0.00    +0.008 A 
ATOM     18  C   UNL     1     -30.665 -12.243  16.090  0.00  0.00    -0.022 A 
ENDBRANCH   1  18
BRANCH   2  19
ATOM     19  C   UNL     1     -32.519 -12.032  18.384  0.00  0.00    +0.049 C 
BRANCH  19  20
ATOM     20  C   UNL     1     -32.376 -12.129  19.905  0.00  0.00    +0.125 C 
BRANCH  20  21
ATOM     21  C   UNL     1     -31.078 -12.778  20.268  0.00  0.00    +0.305 C 
ATOM     22  O   UNL     1     -30.226 -12.148  20.950  0.00  0.00    -0.251 OA
BRANCH  21  23
ATOM     23  O   UNL     1     -30.833 -14.094  19.889  0.00  0.00    -0.481 OA
ATOM     24  H   UNL     1     -31.195 -14.868  20.434  0.00  0.00    +0.295 HD
ENDBRANCH  21  23
ENDBRANCH  20  21
ENDBRANCH  19  20
ENDBRANCH   2  19
TORSDOF 6
ENDMDL
MODEL 6
REMARK VINA RESULT:    -4.377      3.115      7.210
REMARK INTER + INTRA:          -6.910
REMARK INTER:                  -5.767
REMARK INTRA:                  -1.143
REMARK UNBOUND:                -1.125
REMARK  Name = 
REMARK  7 active torsions:
REMARK  status: ('A' for Active; 'I' for Inactive)
REMARK    1  A    between atoms: C_1  and  C_2
REMARK    2  A    between atoms: C_7  and  C_8
REMARK    3  A    between atoms: C_9  and  C_10
REMARK    4  A    between atoms: C_9  and  C_15
REMARK    5  A    between atoms: C_10  and  C_11
REMARK    6  A    between atoms: C_11  and  C_12
REMARK    7  A    between atoms: C_12  and  O_14
REMARK                            x       y       z     vdW  Elec       q    Type
REMARK                         _______ _______ _______ _____ _____    ______ ____
ROOT
ATOM      1  C   UNL     1     -32.318  -9.938  18.171  0.00  0.00    +0.014 C 
ATOM      2  C   UNL     1     -31.505 -10.294  17.153  0.00  0.00    -0.014 C 
ENDROOT
BRANCH   2   3
ATOM      3  C   UNL     1     -32.076 -10.877  15.911  0.00  0.00    +0.106 A 
ATOM      4  N   UNL     1     -31.364 -11.683  15.082  0.00  0.00    -0.239 NA
ATOM      5  C   UNL     1     -32.106 -12.085  14.019  0.00  0.00    +0.079 A 
ATOM      6  C   UNL     1     -31.639 -12.920  13.003  0.00  0.00    +0.029 A 
ATOM      7  C   UNL     1     -32.513 -13.262  11.955  0.00  0.00    +0.002 A 
ATOM      8  C   UNL     1     -33.834 -12.768  11.938  0.00  0.00    +0.001 A 
ATOM      9  C   UNL     1     -34.292 -11.930  12.967  0.00  0.00    +0.017 A 
ATOM     10  C   UNL     1     -33.406 -11.607  13.991  0.00  0.00    +0.040 A 
ATOM     11  S   UNL     1     -33.660 -10.642  15.337  0.00  0.00    -0.067 S 
ENDBRANCH   2   3
BRANCH   1  18
ATOM     12  C   UNL     1     -32.116 -11.621  20.599  0.00  0.00    +0.044 C 
ATOM     13  C   UNL     1     -31.723 -10.168  20.609  0.00  0.00    -0.043 A 
ATOM     14  C   UNL     1     -31.266  -9.579  21.801  0.00  0.00    +0.004 A 
ATOM     15  C   UNL     1     -30.897  -8.231  21.828  0.00  0.00    +0.000 A 
ATOM     16  C   UNL     1     -30.979  -7.458  20.670  0.00  0.00    +0.001 A 
ATOM     17  C   UNL     1     -31.438  -8.027  19.480  0.00  0.00    +0.008 A 
ATOM     18  C   UNL     1     -31.827  -9.374  19.443  0.00  0.00    -0.022 A 
ENDBRANCH   1  18
BRANCH   2  19
ATOM     19  C   UNL     1     -29.997 -10.182  17.266  0.00  0.00    +0.049 C 
BRANCH  19  20
ATOM     20  C   UNL     1     -29.388 -11.508  17.729  0.00  0.00    +0.125 C 
BRANCH  20  21
ATOM     21  C   UNL     1     -28.294 -11.264  18.719  0.00  0.00    +0.305 C 
ATOM     22  O   UNL     1     -27.144 -10.940  18.321  0.00  0.00    -0.251 OA
BRANCH  21  23
ATOM     23  O   UNL     1     -28.562 -11.351  20.081  0.00  0.00    -0.481 OA
ATOM     24  H   UNL     1     -28.123 -10.716  20.739  0.00  0.00    +0.295 HD
ENDBRANCH  21  23
ENDBRANCH  20  21
ENDBRANCH  19  20
ENDBRANCH   2  19
TORSDOF 6
ENDMDL
MODEL 7
REMARK VINA RESULT:    -4.367      2.902      7.496
REMARK INTER + INTRA:          -6.897
REMARK INTER:                  -6.548
REMARK INTRA:                  -0.349
REMARK UNBOUND:                -1.125
REMARK  Name = 
REMARK  7 active torsions:
REMARK  status: ('A' for Active; 'I' for Inactive)
REMARK    1  A    between atoms: C_1  and  C_2
REMARK    2  A    between atoms: C_7  and  C_8
REMARK    3  A    between atoms: C_9  and  C_10
REMARK    4  A    between atoms: C_9  and  C_15
REMARK    5  A    between atoms: C_10  and  C_11
REMARK    6  A    between atoms: C_11  and  C_12
REMARK    7  A    between atoms: C_12  and  O_14
REMARK                            x       y       z     vdW  Elec       q    Type
REMARK                         _______ _______ _______ _____ _____    ______ ____
ROOT
ATOM      1  C   UNL     1     -30.421 -11.899  17.720  0.00  0.00    +0.014 C 
ATOM      2  C   UNL     1     -30.965 -12.726  16.801  0.00  0.00    -0.014 C 
ENDROOT
BRANCH   2   3
ATOM      3  C   UNL     1     -31.948 -12.205  15.817  0.00  0.00    +0.106 A 
ATOM      4  N   UNL     1     -32.091 -12.728  14.572  0.00  0.00    -0.239 NA
ATOM      5  C   UNL     1     -33.051 -12.080  13.865  0.00  0.00    +0.079 A 
ATOM      6  C   UNL     1     -33.418 -12.398  12.557  0.00  0.00    +0.029 A 
ATOM      7  C   UNL     1     -34.431 -11.646  11.938  0.00  0.00    +0.002 A 
ATOM      8  C   UNL     1     -35.062 -10.591  12.629  0.00  0.00    +0.001 A 
ATOM      9  C   UNL     1     -34.684 -10.281  13.946  0.00  0.00    +0.017 A 
ATOM     10  C   UNL     1     -33.678 -11.042  14.535  0.00  0.00    +0.040 A 
ATOM     11  S   UNL     1     -33.023 -10.911  16.071  0.00  0.00    -0.067 S 
ENDBRANCH   2   3
BRANCH   1  18
ATOM     12  C   UNL     1     -31.336 -12.699  20.420  0.00  0.00    +0.044 C 
ATOM     13  C   UNL     1     -29.881 -12.732  20.036  0.00  0.00    -0.043 A 
ATOM     14  C   UNL     1     -28.920 -13.131  20.982  0.00  0.00    +0.004 A 
ATOM     15  C   UNL     1     -27.565 -13.168  20.642  0.00  0.00    +0.000 A 
ATOM     16  C   UNL     1     -27.154 -12.807  19.359  0.00  0.00    +0.001 A 
ATOM     17  C   UNL     1     -28.095 -12.400  18.411  0.00  0.00    +0.008 A 
ATOM     18  C   UNL     1     -29.457 -12.344  18.744  0.00  0.00    -0.022 A 
ENDBRANCH   1  18
BRANCH   2  19
ATOM     19  C   UNL     1     -30.654 -14.210  16.788  0.00  0.00    +0.049 C 
BRANCH  19  20
ATOM     20  C   UNL     1     -30.428 -14.703  15.356  0.00  0.00    +0.125 C 
BRANCH  20  21
ATOM     21  C   UNL     1     -28.976 -14.642  15.005  0.00  0.00    +0.305 C 
ATOM     22  O   UNL     1     -28.619 -14.608  13.797  0.00  0.00    -0.251 OA
BRANCH  21  23
ATOM     23  O   UNL     1     -28.022 -14.578  16.016  0.00  0.00    -0.481 OA
ATOM     24  H   UNL     1     -27.255 -15.240  16.049  0.00  0.00    +0.295 HD
ENDBRANCH  21  23
ENDBRANCH  20  21
ENDBRANCH  19  20
ENDBRANCH   2  19
TORSDOF 6
ENDMDL
MODEL 8
REMARK VINA RESULT:    -4.344      2.615      3.966
REMARK INTER + INTRA:          -6.866
REMARK INTER:                  -5.912
REMARK INTRA:                  -0.954
REMARK UNBOUND:                -1.125
REMARK  Name = 
REMARK  7 active torsions:
REMARK  status: ('A' for Active; 'I' for Inactive)
REMARK    1  A    between atoms: C_1  and  C_2
REMARK    2  A    between atoms: C_7  and  C_8
REMARK    3  A    between atoms: C_9  and  C_10
REMARK    4  A    between atoms: C_9  and  C_15
REMARK    5  A    between atoms: C_10  and  C_11
REMARK    6  A    between atoms: C_11  and  C_12
REMARK    7  A    between atoms: C_12  and  O_14
REMARK                            x       y       z     vdW  Elec       q    Type
REMARK                         _______ _______ _______ _____ _____    ______ ____
ROOT
ATOM      1  C   UNL     1     -30.880 -11.122  17.704  0.00  0.00    +0.014 C 
ATOM      2  C   UNL     1     -30.691 -12.431  17.974  0.00  0.00    -0.014 C 
ENDROOT
BRANCH   2   3
ATOM      3  C   UNL     1     -29.656 -12.849  18.954  0.00  0.00    +0.106 A 
ATOM      4  N   UNL     1     -28.335 -12.922  18.644  0.00  0.00    -0.239 NA
ATOM      5  C   UNL     1     -27.595 -13.329  19.707  0.00  0.00    +0.079 A 
ATOM      6  C   UNL     1     -26.210 -13.494  19.686  0.00  0.00    +0.029 A 
ATOM      7  C   UNL     1     -25.563 -13.921  20.859  0.00  0.00    +0.002 A 
ATOM      8  C   UNL     1     -26.304 -14.176  22.031  0.00  0.00    +0.001 A 
ATOM      9  C   UNL     1     -27.698 -14.005  22.040  0.00  0.00    +0.017 A 
ATOM     10  C   UNL     1     -28.313 -13.581  20.865  0.00  0.00    +0.040 A 
ATOM     11  S   UNL     1     -29.937 -13.292  20.572  0.00  0.00    -0.067 S 
ENDBRANCH   2   3
BRANCH   1  18
ATOM     12  C   UNL     1     -33.060  -9.303  18.543  0.00  0.00    +0.044 C 
ATOM     13  C   UNL     1     -32.914  -9.756  17.115  0.00  0.00    -0.043 A 
ATOM     14  C   UNL     1     -33.843  -9.327  16.151  0.00  0.00    +0.004 A 
ATOM     15  C   UNL     1     -33.723  -9.738  14.821  0.00  0.00    +0.000 A 
ATOM     16  C   UNL     1     -32.677 -10.579  14.438  0.00  0.00    +0.001 A 
ATOM     17  C   UNL     1     -31.751 -11.020  15.387  0.00  0.00    +0.008 A 
ATOM     18  C   UNL     1     -31.871 -10.628  16.728  0.00  0.00    -0.022 A 
ENDBRANCH   1  18
BRANCH   2  19
ATOM     19  C   UNL     1     -31.465 -13.511  17.244  0.00  0.00    +0.049 C 
BRANCH  19  20
ATOM     20  C   UNL     1     -30.575 -14.726  16.971  0.00  0.00    +0.125 C 
BRANCH  20  21
ATOM     21  C   UNL     1     -29.626 -14.438  15.852  0.00  0.00    +0.305 C 
ATOM     22  O   UNL     1     -30.066 -14.195  14.697  0.00  0.00    -0.251 OA
BRANCH  21  23
ATOM     23  O   UNL     1     -28.257 -14.395  16.100  0.00  0.00    -0.481 OA
ATOM     24  H   UNL     1     -27.593 -14.723  15.408  0.00  0.00    +0.295 HD
ENDBRANCH  21  23
ENDBRANCH  20  21
ENDBRANCH  19  20
ENDBRANCH   2  19
TORSDOF 6
ENDMDL
MODEL 9
REMARK VINA RESULT:    -3.899      2.612      3.613
REMARK INTER + INTRA:          -6.278
REMARK INTER:                  -5.999
REMARK INTRA:                  -0.279
REMARK UNBOUND:                -1.125
REMARK  Name = 
REMARK  7 active torsions:
REMARK  status: ('A' for Active; 'I' for Inactive)
REMARK    1  A    between atoms: C_1  and  C_2
REMARK    2  A    between atoms: C_7  and  C_8
REMARK    3  A    between atoms: C_9  and  C_10
REMARK    4  A    between atoms: C_9  and  C_15
REMARK    5  A    between atoms: C_10  and  C_11
REMARK    6  A    between atoms: C_11  and  C_12
REMARK    7  A    between atoms: C_12  and  O_14
REMARK                            x       y       z     vdW  Elec       q    Type
REMARK                         _______ _______ _______ _____ _____    ______ ____
ROOT
ATOM      1  C   UNL     1     -32.521 -12.000  15.702  0.00  0.00    +0.014 C 
ATOM      2  C   UNL     1     -31.336 -12.640  15.799  0.00  0.00    -0.014 C 
ENDROOT
BRANCH   2   3
ATOM      3  C   UNL     1     -30.670 -12.781  17.120  0.00  0.00    +0.106 A 
ATOM      4  N   UNL     1     -29.324 -12.695  17.278  0.00  0.00    -0.239 NA
ATOM      5  C   UNL     1     -28.964 -12.859  18.577  0.00  0.00    +0.079 A 
ATOM      6  C   UNL     1     -27.648 -12.819  19.040  0.00  0.00    +0.029 A 
ATOM      7  C   UNL     1     -27.410 -13.004  20.413  0.00  0.00    +0.002 A 
ATOM      8  C   UNL     1     -28.484 -13.224  21.301  0.00  0.00    +0.001 A 
ATOM      9  C   UNL     1     -29.803 -13.260  20.822  0.00  0.00    +0.017 A 
ATOM     10  C   UNL     1     -30.010 -13.075  19.458  0.00  0.00    +0.040 A 
ATOM     11  S   UNL     1     -31.451 -13.066  18.604  0.00  0.00    -0.067 S 
ENDBRANCH   2   3
BRANCH   1  18
ATOM     12  C   UNL     1     -34.070  -9.527  15.203  0.00  0.00    +0.044 C 
ATOM     13  C   UNL     1     -33.975 -10.621  14.174  0.00  0.00    -0.043 A 
ATOM     14  C   UNL     1     -34.650 -10.485  12.948  0.00  0.00    +0.004 A 
ATOM     15  C   UNL     1     -34.572 -11.491  11.981  0.00  0.00    +0.000 A 
ATOM     16  C   UNL     1     -33.821 -12.641  12.225  0.00  0.00    +0.001 A 
ATOM     17  C   UNL     1     -33.150 -12.794  13.441  0.00  0.00    +0.008 A 
ATOM     18  C   UNL     1     -33.234 -11.799  14.426  0.00  0.00    -0.022 A 
ENDBRANCH   1  18
BRANCH   2  19
ATOM     19  C   UNL     1     -30.616 -13.165  14.573  0.00  0.00    +0.049 C 
BRANCH  19  20
ATOM     20  C   UNL     1     -30.250 -14.641  14.749  0.00  0.00    +0.125 C 
BRANCH  20  21
ATOM     21  C   UNL     1     -28.772 -14.832  14.629  0.00  0.00    +0.305 C 
ATOM     22  O   UNL     1     -28.254 -15.063  13.504  0.00  0.00    -0.251 OA
BRANCH  21  23
ATOM     23  O   UNL     1     -27.965 -14.709  15.756  0.00  0.00    -0.481 OA
ATOM     24  H   UNL     1     -28.254 -15.097  16.647  0.00  0.00    +0.295 HD
ENDBRANCH  21  23
ENDBRANCH  20  21
ENDBRANCH  19  20
ENDBRANCH   2  19
TORSDOF 6
ENDMDL
