MODEL 1
REMARK VINA RESULT:    -4.500      0.000      0.000
REMARK INTER + INTRA:          -7.412
REMARK INTER:                  -5.815
REMARK INTRA:                  -1.597
REMARK UNBOUND:                -1.597
REMARK  Name = 
REMARK  5 active torsions:
REMARK  status: ('A' for Active; 'I' for Inactive)
REMARK    1  A    between atoms: C_7  and  C_8
REMARK    2  A    between atoms: C_8  and  S_9
REMARK    3  A    between atoms: S_9  and  C_10
REMARK    4  A    between atoms: C_12  and  C_13
REMARK    5  A    between atoms: C_14  and  C_15
REMARK                            x       y       z     vdW  Elec       q    Type
REMARK                         _______ _______ _______ _____ _____    ______ ____
ROOT
ATOM      1  C   UNL     1     -33.672 -10.722  17.498  0.00  0.00    +0.185 A 
ATOM      2  N   UNL     1     -33.352 -11.803  18.236  0.00  0.00    -0.202 NA
ATOM      3  C   UNL     1     -32.362 -11.321  19.017  0.00  0.00    +0.175 A 
ATOM      4  N   UNL     1     -32.071 -10.030  18.750  0.00  0.00    -0.152 NA
ATOM      5  N   UNL     1     -32.910  -9.661  17.802  0.00  0.00    -0.253 N 
ATOM      6  H   UNL     1     -32.946  -8.711  17.371  0.00  0.00    +0.191 HD
ENDROOT
BRANCH   3   7
ATOM      7  C   UNL     1     -31.611 -12.167  19.962  0.00  0.00    +0.051 C 
ATOM      8  C   UNL     1     -30.819 -13.195  19.626  0.00  0.00    +0.019 C 
BRANCH   8   9
ATOM      9  C   UNL     1     -30.367 -13.516  18.261  0.00  0.00    +0.012 A 
ATOM     10  C   UNL     1     -30.996 -14.419  17.414  0.00  0.00    +0.015 A 
ATOM     11  C   UNL     1     -30.287 -14.659  16.230  0.00  0.00    +0.008 A 
ATOM     12  C   UNL     1     -29.084 -13.972  16.152  0.00  0.00    +0.046 A 
ATOM     13  S   UNL     1     -28.899 -13.072  17.560  0.00  0.00    -0.097 S 
ENDBRANCH   8   9
ENDBRANCH   3   7
BRANCH   1  14
ATOM     14  S   UNL     1     -34.949 -10.713  16.245  0.00  0.00    -0.082 S 
BRANCH  14  15
ATOM     15  C   UNL     1     -33.840 -10.055  14.958  0.00  0.00    +0.115 C 
BRANCH  15  22
ATOM     16  F   UNL     1     -31.278 -11.336  15.105  0.00  0.00    -0.205 F 
ATOM     17  C   UNL     1     -32.157 -11.768  14.165  0.00  0.00    +0.127 A 
ATOM     18  C   UNL     1     -31.793 -12.824  13.323  0.00  0.00    +0.038 A 
ATOM     19  C   UNL     1     -32.689 -13.294  12.359  0.00  0.00    +0.003 A 
ATOM     20  C   UNL     1     -33.954 -12.713  12.237  0.00  0.00    +0.000 A 
ATOM     21  C   UNL     1     -34.324 -11.658  13.075  0.00  0.00    +0.007 A 
ATOM     22  C   UNL     1     -33.424 -11.168  14.038  0.00  0.00    -0.002 A 
ENDBRANCH  15  22
ENDBRANCH  14  15
ENDBRANCH   1  14
TORSDOF 5
ENDMDL
MODEL 2
REMARK VINA RESULT:    -4.457      3.308      6.969
REMARK INTER + INTRA:          -7.356
REMARK INTER:                  -6.775
REMARK INTRA:                  -0.582
REMARK UNBOUND:                -1.597
REMARK  Name = 
REMARK  5 active torsions:
REMARK  status: ('A' for Active; 'I' for Inactive)
REMARK    1  A    between atoms: C_7  and  C_8
REMARK    2  A    between atoms: C_8  and  S_9
REMARK    3  A    between atoms: S_9  and  C_10
REMARK    4  A    between atoms: C_12  and  C_13
REMARK    5  A    between atoms: C_14  and  C_15
REMARK                            x       y       z     vdW  Elec       q    Type
REMARK                         _______ _______ _______ _____ _____    ______ ____
ROOT
ATOM      1  C   UNL     1     -30.593 -13.539  18.566  0.00  0.00    +0.185 A 
ATOM      2  N   UNL     1     -29.853 -13.139  17.514  0.00  0.00    -0.202 NA
ATOM      3  C   UNL     1     -30.119 -14.104  16.607  0.00  0.00    +0.175 A 
ATOM      4  N   UNL     1     -30.947 -15.055  17.088  0.00  0.00    -0.152 NA
ATOM      5  N   UNL     1     -31.248 -14.681  18.317  0.00  0.00    -0.253 N 
ATOM      6  H   UNL     1     -31.877 -15.205  18.965  0.00  0.00    +0.191 HD
ENDROOT
BRANCH   3   7
ATOM      7  C   UNL     1     -29.464 -14.157  15.287  0.00  0.00    +0.051 C 
ATOM      8  C   UNL     1     -30.034 -13.817  14.123  0.00  0.00    +0.019 C 
BRANCH   8   9
ATOM      9  C   UNL     1     -31.319 -13.110  13.973  0.00  0.00    +0.012 A 
ATOM     10  C   UNL     1     -32.213 -13.313  12.931  0.00  0.00    +0.015 A 
ATOM     11  C   UNL     1     -33.287 -12.413  12.935  0.00  0.00    +0.008 A 
ATOM     12  C   UNL     1     -33.227 -11.479  13.959  0.00  0.00    +0.046 A 
ATOM     13  S   UNL     1     -31.834 -11.768  14.855  0.00  0.00    -0.097 S 
ENDBRANCH   8   9
ENDBRANCH   3   7
BRANCH   1  14
ATOM     14  S   UNL     1     -30.672 -12.657  20.121  0.00  0.00    -0.082 S 
BRANCH  14  15
ATOM     15  C   UNL     1     -29.034 -11.891  19.900  0.00  0.00    +0.115 C 
BRANCH  15  22
ATOM     16  F   UNL     1     -26.407 -12.068  18.764  0.00  0.00    -0.205 F 
ATOM     17  C   UNL     1     -26.695 -12.852  19.835  0.00  0.00    +0.127 A 
ATOM     18  C   UNL     1     -25.706 -13.695  20.351  0.00  0.00    +0.038 A 
ATOM     19  C   UNL     1     -25.978 -14.498  21.461  0.00  0.00    +0.003 A 
ATOM     20  C   UNL     1     -27.239 -14.457  22.062  0.00  0.00    +0.000 A 
ATOM     21  C   UNL     1     -28.232 -13.617  21.550  0.00  0.00    +0.007 A 
ATOM     22  C   UNL     1     -27.972 -12.816  20.425  0.00  0.00    -0.002 A 
ENDBRANCH  15  22
ENDBRANCH  14  15
ENDBRANCH   1  14
TORSDOF 5
ENDMDL
MODEL 3
REMARK VINA RESULT:    -4.402      2.513      4.142
REMARK INTER + INTRA:          -7.285
REMARK INTER:                  -5.975
REMARK INTRA:                  -1.311
REMARK UNBOUND:                -1.597
REMARK  Name = 
REMARK  5 active torsions:
REMARK  status: ('A' for Active; 'I' for Inactive)
REMARK    1  A    between atoms: C_7  and  C_8
REMARK    2  A    between atoms: C_8  and  S_9
REMARK    3  A    between atoms: S_9  and  C_10
REMARK    4  A    between atoms: C_12  and  C_13
REMARK    5  A    between atoms: C_14  and  C_15
REMARK                            x       y       z     vdW  Elec       q    Type
REMARK                         _______ _______ _______ _____ _____    ______ ____
ROOT
ATOM      1  C   UNL     1     -29.897 -14.282  16.577  0.00  0.00    +0.185 A 
ATOM      2  N   UNL     1     -29.234 -13.112  16.652  0.00  0.00    -0.202 NA
ATOM      3  C   UNL     1     -29.113 -12.949  17.987  0.00  0.00    +0.175 A 
ATOM      4  N   UNL     1     -29.696 -13.945  18.687  0.00  0.00    -0.152 NA
ATOM      5  N   UNL     1     -30.174 -14.784  17.788  0.00  0.00    -0.253 N 
ATOM      6  H   UNL     1     -30.686 -15.667  18.006  0.00  0.00    +0.191 HD
ENDROOT
BRANCH   3   7
ATOM      7  C   UNL     1     -28.516 -11.744  18.591  0.00  0.00    +0.051 C 
ATOM      8  C   UNL     1     -29.121 -10.555  18.715  0.00  0.00    +0.019 C 
BRANCH   8   9
ATOM      9  C   UNL     1     -30.556 -10.298  18.495  0.00  0.00    +0.012 A 
ATOM     10  C   UNL     1     -31.063  -9.427  17.540  0.00  0.00    +0.015 A 
ATOM     11  C   UNL     1     -32.449  -9.246  17.632  0.00  0.00    +0.008 A 
ATOM     12  C   UNL     1     -33.035  -9.946  18.677  0.00  0.00    +0.046 A 
ATOM     13  S   UNL     1     -31.826 -10.785  19.491  0.00  0.00    -0.097 S 
ENDBRANCH   8   9
ENDBRANCH   3   7
BRANCH   1  14
ATOM     14  S   UNL     1     -30.370 -15.062  15.037  0.00  0.00    -0.082 S 
BRANCH  14  15
ATOM     15  C   UNL     1     -30.210 -13.523  14.076  0.00  0.00    +0.115 C 
BRANCH  15  22
ATOM     16  F   UNL     1     -31.837 -11.684  15.559  0.00  0.00    -0.205 F 
ATOM     17  C   UNL     1     -32.318 -12.159  14.382  0.00  0.00    +0.127 A 
ATOM     18  C   UNL     1     -33.569 -11.725  13.929  0.00  0.00    +0.038 A 
ATOM     19  C   UNL     1     -34.075 -12.190  12.714  0.00  0.00    +0.003 A 
ATOM     20  C   UNL     1     -33.331 -13.087  11.943  0.00  0.00    +0.000 A 
ATOM     21  C   UNL     1     -32.081 -13.525  12.389  0.00  0.00    +0.007 A 
ATOM     22  C   UNL     1     -31.570 -13.074  13.618  0.00  0.00    -0.002 A 
ENDBRANCH  15  22
ENDBRANCH  14  15
ENDBRANCH   1  14
TORSDOF 5
ENDMDL
MODEL 4
REMARK VINA RESULT:    -4.320      3.314      7.121
REMARK INTER + INTRA:          -7.179
REMARK INTER:                  -6.477
REMARK INTRA:                  -0.702
REMARK UNBOUND:                -1.597
REMARK  Name = 
REMARK  5 active torsions:
REMARK  status: ('A' for Active; 'I' for Inactive)
REMARK    1  A    between atoms: C_7  and  C_8
REMARK    2  A    between atoms: C_8  and  S_9
REMARK    3  A    between atoms: S_9  and  C_10
REMARK    4  A    between atoms: C_12  and  C_13
REMARK    5  A    between atoms: C_14  and  C_15
REMARK                            x       y       z     vdW  Elec       q    Type
REMARK                         _______ _______ _______ _____ _____    ______ ____
ROOT
ATOM      1  C   UNL     1     -30.800 -13.519  18.661  0.00  0.00    +0.185 A 
ATOM      2  N   UNL     1     -30.634 -12.700  17.605  0.00  0.00    -0.202 NA
ATOM      3  C   UNL     1     -30.942 -13.515  16.573  0.00  0.00    +0.175 A 
ATOM      4  N   UNL     1     -31.246 -14.768  16.973  0.00  0.00    -0.152 NA
ATOM      5  N   UNL     1     -31.165 -14.754  18.290  0.00  0.00    -0.253 N 
ATOM      6  H   UNL     1     -31.345 -15.575  18.909  0.00  0.00    +0.191 HD
ENDROOT
BRANCH   3   7
ATOM      7  C   UNL     1     -30.828 -13.094  15.165  0.00  0.00    +0.051 C 
ATOM      8  C   UNL     1     -31.639 -12.224  14.546  0.00  0.00    +0.019 C 
BRANCH   8   9
ATOM      9  C   UNL     1     -32.631 -11.358  15.208  0.00  0.00    +0.012 A 
ATOM     10  C   UNL     1     -32.365 -10.086  15.697  0.00  0.00    +0.015 A 
ATOM     11  C   UNL     1     -33.433  -9.531  16.414  0.00  0.00    +0.008 A 
ATOM     12  C   UNL     1     -34.530 -10.374  16.522  0.00  0.00    +0.046 A 
ATOM     13  S   UNL     1     -34.169 -11.812  15.730  0.00  0.00    -0.097 S 
ENDBRANCH   8   9
ENDBRANCH   3   7
BRANCH   1  14
ATOM     14  S   UNL     1     -30.540 -13.020  20.360  0.00  0.00    -0.082 S 
BRANCH  14  15
ATOM     15  C   UNL     1     -28.967 -12.178  19.991  0.00  0.00    +0.115 C 
BRANCH  15  22
ATOM     16  F   UNL     1     -26.327 -12.012  18.884  0.00  0.00    -0.205 F 
ATOM     17  C   UNL     1     -26.542 -12.892  19.894  0.00  0.00    +0.127 A 
ATOM     18  C   UNL     1     -25.477 -13.665  20.366  0.00  0.00    +0.038 A 
ATOM     19  C   UNL     1     -25.674 -14.566  21.415  0.00  0.00    +0.003 A 
ATOM     20  C   UNL     1     -26.937 -14.694  21.999  0.00  0.00    +0.000 A 
ATOM     21  C   UNL     1     -28.006 -13.925  21.532  0.00  0.00    +0.007 A 
ATOM     22  C   UNL     1     -27.821 -13.026  20.467  0.00  0.00    -0.002 A 
ENDBRANCH  15  22
ENDBRANCH  14  15
ENDBRANCH   1  14
TORSDOF 5
ENDMDL
MODEL 5
REMARK VINA RESULT:    -4.273      2.662      3.773
REMARK INTER + INTRA:          -7.119
REMARK INTER:                  -6.330
REMARK INTRA:                  -0.789
REMARK UNBOUND:                -1.597
REMARK  Name = 
REMARK  5 active torsions:
REMARK  status: ('A' for Active; 'I' for Inactive)
REMARK    1  A    between atoms: C_7  and  C_8
REMARK    2  A    between atoms: C_8  and  S_9
REMARK    3  A    between atoms: S_9  and  C_10
REMARK    4  A    between atoms: C_12  and  C_13
REMARK    5  A    between atoms: C_14  and  C_15
REMARK                            x       y       z     vdW  Elec       q    Type
REMARK                         _______ _______ _______ _____ _____    ______ ____
ROOT
ATOM      1  C   UNL     1     -30.728 -14.008  17.176  0.00  0.00    +0.185 A 
ATOM      2  N   UNL     1     -30.146 -12.850  17.541  0.00  0.00    -0.202 NA
ATOM      3  C   UNL     1     -30.341 -12.853  18.877  0.00  0.00    +0.175 A 
ATOM      4  N   UNL     1     -31.030 -13.933  19.300  0.00  0.00    -0.152 NA
ATOM      5  N   UNL     1     -31.257 -14.659  18.222  0.00  0.00    -0.253 N 
ATOM      6  H   UNL     1     -31.771 -15.567  18.208  0.00  0.00    +0.191 HD
ENDROOT
BRANCH   3   7
ATOM      7  C   UNL     1     -29.944 -11.726  19.741  0.00  0.00    +0.051 C 
ATOM      8  C   UNL     1     -28.975 -11.760  20.667  0.00  0.00    +0.019 C 
BRANCH   8   9
ATOM      9  C   UNL     1     -27.980 -12.836  20.826  0.00  0.00    +0.012 A 
ATOM     10  C   UNL     1     -27.943 -13.724  21.892  0.00  0.00    +0.015 A 
ATOM     11  C   UNL     1     -26.814 -14.553  21.887  0.00  0.00    +0.008 A 
ATOM     12  C   UNL     1     -25.942 -14.302  20.837  0.00  0.00    +0.046 A 
ATOM     13  S   UNL     1     -26.573 -13.043  19.919  0.00  0.00    -0.097 S 
ENDBRANCH   8   9
ENDBRANCH   3   7
BRANCH   1  14
ATOM     14  S   UNL     1     -30.805 -14.596  15.487  0.00  0.00    -0.082 S 
BRANCH  14  15
ATOM     15  C   UNL     1     -30.724 -12.919  14.780  0.00  0.00    +0.115 C 
BRANCH  15  22
ATOM     16  F   UNL     1     -32.783 -11.092  15.583  0.00  0.00    -0.205 F 
ATOM     17  C   UNL     1     -32.930 -11.742  14.400  0.00  0.00    +0.127 A 
ATOM     18  C   UNL     1     -34.058 -11.485  13.614  0.00  0.00    +0.038 A 
ATOM     19  C   UNL     1     -34.221 -12.132  12.387  0.00  0.00    +0.003 A 
ATOM     20  C   UNL     1     -33.252 -13.034  11.938  0.00  0.00    +0.000 A 
ATOM     21  C   UNL     1     -32.122 -13.295  12.718  0.00  0.00    +0.007 A 
ATOM     22  C   UNL     1     -31.958 -12.660  13.961  0.00  0.00    -0.002 A 
ENDBRANCH  15  22
ENDBRANCH  14  15
ENDBRANCH   1  14
TORSDOF 5
ENDMDL
MODEL 6
REMARK VINA RESULT:    -4.227      2.465      6.183
REMARK INTER + INTRA:          -7.059
REMARK INTER:                  -5.432
REMARK INTRA:                  -1.627
REMARK UNBOUND:                -1.597
REMARK  Name = 
REMARK  5 active torsions:
REMARK  status: ('A' for Active; 'I' for Inactive)
REMARK    1  A    between atoms: C_7  and  C_8
REMARK    2  A    between atoms: C_8  and  S_9
REMARK    3  A    between atoms: S_9  and  C_10
REMARK    4  A    between atoms: C_12  and  C_13
REMARK    5  A    between atoms: C_14  and  C_15
REMARK                            x       y       z     vdW  Elec       q    Type
REMARK                         _______ _______ _______ _____ _____    ______ ____
ROOT
ATOM      1  C   UNL     1     -29.744 -13.769  18.395  0.00  0.00    +0.185 A 
ATOM      2  N   UNL     1     -29.563 -13.443  17.101  0.00  0.00    -0.202 NA
ATOM      3  C   UNL     1     -30.680 -13.945  16.531  0.00  0.00    +0.175 A 
ATOM      4  N   UNL     1     -31.480 -14.570  17.420  0.00  0.00    -0.152 NA
ATOM      5  N   UNL     1     -30.887 -14.442  18.591  0.00  0.00    -0.253 N 
ATOM      6  H   UNL     1     -31.254 -14.818  19.492  0.00  0.00    +0.191 HD
ENDROOT
BRANCH   3   7
ATOM      7  C   UNL     1     -30.915 -13.911  15.076  0.00  0.00    +0.051 C 
ATOM      8  C   UNL     1     -31.784 -13.107  14.448  0.00  0.00    +0.019 C 
BRANCH   8   9
ATOM      9  C   UNL     1     -32.480 -11.958  15.055  0.00  0.00    +0.012 A 
ATOM     10  C   UNL     1     -32.002 -10.655  15.049  0.00  0.00    +0.015 A 
ATOM     11  C   UNL     1     -32.774  -9.776  15.820  0.00  0.00    +0.008 A 
ATOM     12  C   UNL     1     -33.842 -10.387  16.461  0.00  0.00    +0.046 A 
ATOM     13  S   UNL     1     -33.822 -12.023  16.074  0.00  0.00    -0.097 S 
ENDBRANCH   8   9
ENDBRANCH   3   7
BRANCH   1  14
ATOM     14  S   UNL     1     -28.581 -13.370  19.695  0.00  0.00    -0.082 S 
BRANCH  14  15
ATOM     15  C   UNL     1     -28.240 -11.707  19.036  0.00  0.00    +0.115 C 
BRANCH  15  22
ATOM     16  F   UNL     1     -29.579  -9.893  17.263  0.00  0.00    -0.205 F 
ATOM     17  C   UNL     1     -29.946  -9.899  18.570  0.00  0.00    +0.127 A 
ATOM     18  C   UNL     1     -30.967  -9.043  18.997  0.00  0.00    +0.038 A 
ATOM     19  C   UNL     1     -31.370  -9.045  20.334  0.00  0.00    +0.003 A 
ATOM     20  C   UNL     1     -30.759  -9.906  21.248  0.00  0.00    +0.000 A 
ATOM     21  C   UNL     1     -29.738 -10.763  20.828  0.00  0.00    +0.007 A 
ATOM     22  C   UNL     1     -29.315 -10.758  19.488  0.00  0.00    -0.002 A 
ENDBRANCH  15  22
ENDBRANCH  14  15
ENDBRANCH   1  14
TORSDOF 5
ENDMDL
MODEL 7
REMARK VINA RESULT:    -4.118      2.165      3.344
REMARK INTER + INTRA:          -6.918
REMARK INTER:                  -5.242
REMARK INTRA:                  -1.676
REMARK UNBOUND:                -1.597
REMARK  Name = 
REMARK  5 active torsions:
REMARK  status: ('A' for Active; 'I' for Inactive)
REMARK    1  A    between atoms: C_7  and  C_8
REMARK    2  A    between atoms: C_8  and  S_9
REMARK    3  A    between atoms: S_9  and  C_10
REMARK    4  A    between atoms: C_12  and  C_13
REMARK    5  A    between atoms: C_14  and  C_15
REMARK                            x       y       z     vdW  Elec       q    Type
REMARK                         _______ _______ _______ _____ _____    ______ ____
ROOT
ATOM      1  C   UNL     1     -31.852 -10.015  16.183  0.00  0.00    +0.185 A 
ATOM      2  N   UNL     1     -32.179  -9.673  17.444  0.00  0.00    -0.202 NA
ATOM      3  C   UNL     1     -30.976  -9.346  17.962  0.00  0.00    +0.175 A 
ATOM      4  N   UNL     1     -29.968  -9.510  17.079  0.00  0.00    -0.152 NA
ATOM      5  N   UNL     1     -30.534  -9.920  15.960  0.00  0.00    -0.253 N 
ATOM      6  H   UNL     1     -30.024 -10.137  15.076  0.00  0.00    +0.191 HD
ENDROOT
BRANCH   3   7
ATOM      7  C   UNL     1     -30.793  -8.973  19.377  0.00  0.00    +0.051 C 
ATOM      8  C   UNL     1     -30.432  -9.809  20.360  0.00  0.00    +0.019 C 
BRANCH   8   9
ATOM      9  C   UNL     1     -29.925 -11.181  20.175  0.00  0.00    +0.012 A 
ATOM     10  C   UNL     1     -30.489 -12.313  20.748  0.00  0.00    +0.015 A 
ATOM     11  C   UNL     1     -29.735 -13.475  20.541  0.00  0.00    +0.008 A 
ATOM     12  C   UNL     1     -28.560 -13.260  19.835  0.00  0.00    +0.046 A 
ATOM     13  S   UNL     1     -28.457 -11.621  19.474  0.00  0.00    -0.097 S 
ENDBRANCH   8   9
ENDBRANCH   3   7
BRANCH   1  14
ATOM     14  S   UNL     1     -33.039 -10.557  14.958  0.00  0.00    -0.082 S 
BRANCH  14  15
ATOM     15  C   UNL     1     -33.329 -12.156  15.780  0.00  0.00    +0.115 C 
BRANCH  15  22
ATOM     16  F   UNL     1     -32.093 -13.394  18.053  0.00  0.00    -0.205 F 
ATOM     17  C   UNL     1     -31.534 -13.595  16.832  0.00  0.00    +0.127 A 
ATOM     18  C   UNL     1     -30.399 -14.405  16.725  0.00  0.00    +0.038 A 
ATOM     19  C   UNL     1     -29.817 -14.636  15.476  0.00  0.00    +0.003 A 
ATOM     20  C   UNL     1     -30.372 -14.062  14.329  0.00  0.00    +0.000 A 
ATOM     21  C   UNL     1     -31.506 -13.252  14.429  0.00  0.00    +0.007 A 
ATOM     22  C   UNL     1     -32.090 -13.001  15.683  0.00  0.00    -0.002 A 
ENDBRANCH  15  22
ENDBRANCH  14  15
ENDBRANCH   1  14
TORSDOF 5
ENDMDL
MODEL 8
REMARK VINA RESULT:    -4.026      2.492      6.171
REMARK INTER + INTRA:          -6.799
REMARK INTER:                  -5.239
REMARK INTRA:                  -1.560
REMARK UNBOUND:                -1.597
REMARK  Name = 
REMARK  5 active torsions:
REMARK  status: ('A' for Active; 'I' for Inactive)
REMARK    1  A    between atoms: C_7  and  C_8
REMARK    2  A    between atoms: C_8  and  S_9
REMARK    3  A    between atoms: S_9  and  C_10
REMARK    4  A    between atoms: C_12  and  C_13
REMARK    5  A    between atoms: C_14  and  C_15
REMARK                            x       y       z     vdW  Elec       q    Type
REMARK                         _______ _______ _______ _____ _____    ______ ____
ROOT
ATOM      1  C   UNL     1     -29.959 -13.757  18.245  0.00  0.00    +0.185 A 
ATOM      2  N   UNL     1     -29.793 -13.371  16.965  0.00  0.00    -0.202 NA
ATOM      3  C   UNL     1     -30.833 -13.979  16.356  0.00  0.00    +0.175 A 
ATOM      4  N   UNL     1     -31.573 -14.720  17.208  0.00  0.00    -0.152 NA
ATOM      5  N   UNL     1     -31.020 -14.562  18.395  0.00  0.00    -0.253 N 
ATOM      6  H   UNL     1     -31.358 -15.006  19.277  0.00  0.00    +0.191 HD
ENDROOT
BRANCH   3   7
ATOM      7  C   UNL     1     -31.044 -13.926  14.898  0.00  0.00    +0.051 C 
ATOM      8  C   UNL     1     -31.833 -13.052  14.258  0.00  0.00    +0.019 C 
BRANCH   8   9
ATOM      9  C   UNL     1     -32.440 -11.849  14.856  0.00  0.00    +0.012 A 
ATOM     10  C   UNL     1     -31.738 -10.703  15.205  0.00  0.00    +0.015 A 
ATOM     11  C   UNL     1     -32.516  -9.761  15.891  0.00  0.00    +0.008 A 
ATOM     12  C   UNL     1     -33.822 -10.173  16.115  0.00  0.00    +0.046 A 
ATOM     13  S   UNL     1     -34.007 -11.712  15.464  0.00  0.00    -0.097 S 
ENDBRANCH   8   9
ENDBRANCH   3   7
BRANCH   1  14
ATOM     14  S   UNL     1     -28.874 -13.269  19.581  0.00  0.00    -0.082 S 
BRANCH  14  15
ATOM     15  C   UNL     1     -30.250 -12.839  20.694  0.00  0.00    +0.115 C 
BRANCH  15  22
ATOM     16  F   UNL     1     -33.052 -12.390  20.273  0.00  0.00    -0.205 F 
ATOM     17  C   UNL     1     -32.205 -11.341  20.114  0.00  0.00    +0.127 A 
ATOM     18  C   UNL     1     -32.725 -10.088  19.774  0.00  0.00    +0.038 A 
ATOM     19  C   UNL     1     -31.872  -8.992  19.622  0.00  0.00    +0.003 A 
ATOM     20  C   UNL     1     -30.496  -9.144  19.814  0.00  0.00    +0.000 A 
ATOM     21  C   UNL     1     -29.970 -10.394  20.154  0.00  0.00    +0.007 A 
ATOM     22  C   UNL     1     -30.819 -11.505  20.295  0.00  0.00    -0.002 A 
ENDBRANCH  15  22
ENDBRANCH  14  15
ENDBRANCH   1  14
TORSDOF 5
ENDMDL
MODEL 9
REMARK VINA RESULT:    -3.525      3.415      6.606
REMARK INTER + INTRA:          -6.152
REMARK INTER:                  -5.162
REMARK INTRA:                  -0.990
REMARK UNBOUND:                -1.597
REMARK  Name = 
REMARK  5 active torsions:
REMARK  status: ('A' for Active; 'I' for Inactive)
REMARK    1  A    between atoms: C_7  and  C_8
REMARK    2  A    between atoms: C_8  and  S_9
REMARK    3  A    between atoms: S_9  and  C_10
REMARK    4  A    between atoms: C_12  and  C_13
REMARK    5  A    between atoms: C_14  and  C_15
REMARK                            x       y       z     vdW  Elec       q    Type
REMARK                         _______ _______ _______ _____ _____    ______ ____
ROOT
ATOM      1  C   UNL     1     -29.982 -10.370  20.428  0.00  0.00    +0.185 A 
ATOM      2  N   UNL     1     -30.238 -10.820  19.185  0.00  0.00    -0.202 NA
ATOM      3  C   UNL     1     -30.409  -9.666  18.503  0.00  0.00    +0.175 A 
ATOM      4  N   UNL     1     -30.296  -8.576  19.291  0.00  0.00    -0.152 NA
ATOM      5  N   UNL     1     -30.015  -9.031  20.497  0.00  0.00    -0.253 N 
ATOM      6  H   UNL     1     -29.863  -8.437  21.341  0.00  0.00    +0.191 HD
ENDROOT
BRANCH   3   7
ATOM      7  C   UNL     1     -30.800  -9.632  17.082  0.00  0.00    +0.051 C 
ATOM      8  C   UNL     1     -30.906 -10.699  16.279  0.00  0.00    +0.019 C 
BRANCH   8   9
ATOM      9  C   UNL     1     -30.888 -12.107  16.719  0.00  0.00    +0.012 A 
ATOM     10  C   UNL     1     -29.821 -12.976  16.535  0.00  0.00    +0.015 A 
ATOM     11  C   UNL     1     -30.108 -14.295  16.907  0.00  0.00    +0.008 A 
ATOM     12  C   UNL     1     -31.409 -14.479  17.352  0.00  0.00    +0.046 A 
ATOM     13  S   UNL     1     -32.204 -13.000  17.278  0.00  0.00    -0.097 S 
ENDBRANCH   8   9
ENDBRANCH   3   7
BRANCH   1  14
ATOM     14  S   UNL     1     -29.659 -11.437  21.827  0.00  0.00    -0.082 S 
BRANCH  14  15
ATOM     15  C   UNL     1     -29.472 -12.925  20.794  0.00  0.00    +0.115 C 
BRANCH  15  22
ATOM     16  F   UNL     1     -27.423 -12.197  18.924  0.00  0.00    -0.205 F 
ATOM     17  C   UNL     1     -27.090 -13.025  19.947  0.00  0.00    +0.127 A 
ATOM     18  C   UNL     1     -25.771 -13.474  20.063  0.00  0.00    +0.038 A 
ATOM     19  C   UNL     1     -25.405 -14.314  21.117  0.00  0.00    +0.003 A 
ATOM     20  C   UNL     1     -26.356 -14.705  22.063  0.00  0.00    +0.000 A 
ATOM     21  C   UNL     1     -27.677 -14.260  21.953  0.00  0.00    +0.007 A 
ATOM     22  C   UNL     1     -28.058 -13.427  20.887  0.00  0.00    -0.002 A 
ENDBRANCH  15  22
ENDBRANCH  14  15
ENDBRANCH   1  14
TORSDOF 5
ENDMDL
