MODEL 1
REMARK VINA RESULT:    -4.389      0.000      0.000
REMARK INTER + INTRA:          -7.650
REMARK INTER:                  -6.313
REMARK INTRA:                  -1.337
REMARK UNBOUND:                -1.337
REMARK  Name = 
REMARK  10 active torsions:
REMARK  status: ('A' for Active; 'I' for Inactive)
REMARK    1  A    between atoms: C_1  and  O_2
REMARK    2  A    between atoms: O_2  and  C_3
REMARK    3  A    between atoms: C_6  and  C_7
REMARK    4  A    between atoms: C_8  and  C_9
REMARK    5  A    between atoms: C_8  and  C_14
REMARK    6  A    between atoms: C_9  and  C_10
REMARK    7  A    between atoms: C_10  and  C_11
REMARK    8  A    between atoms: C_11  and  O_13
REMARK    9  A    between atoms: C_23  and  O_25
REMARK   10  A    between atoms: O_25  and  C_26
REMARK                            x       y       z     vdW  Elec       q    Type
REMARK                         _______ _______ _______ _____ _____    ______ ____
ROOT
ATOM      1  C   UNL     1     -31.053 -12.899  17.334  0.00  0.00    +0.017 C 
ATOM      2  C   UNL     1     -30.119 -12.110  17.907  0.00  0.00    -0.014 C 
ENDROOT
BRANCH   2   3
ATOM      3  C   UNL     1     -29.179 -12.677  18.908  0.00  0.00    +0.106 A 
ATOM      4  N   UNL     1     -27.836 -12.730  18.710  0.00  0.00    -0.239 NA
ATOM      5  C   UNL     1     -27.198 -13.289  19.770  0.00  0.00    +0.079 A 
ATOM      6  C   UNL     1     -25.818 -13.476  19.850  0.00  0.00    +0.029 A 
ATOM      7  C   UNL     1     -25.282 -14.068  21.007  0.00  0.00    +0.002 A 
ATOM      8  C   UNL     1     -26.128 -14.464  22.062  0.00  0.00    +0.001 A 
ATOM      9  C   UNL     1     -27.516 -14.270  21.971  0.00  0.00    +0.017 A 
ATOM     10  C   UNL     1     -28.019 -13.681  20.814  0.00  0.00    +0.040 A 
ATOM     11  S   UNL     1     -29.609 -13.326  20.420  0.00  0.00    -0.067 S 
ENDBRANCH   2   3
BRANCH   1  15
ATOM     12  C   UNL     1     -33.820 -11.611  14.321  0.00  0.00    +0.124 A 
ATOM     13  C   UNL     1     -34.161 -11.547  15.674  0.00  0.00    +0.046 A 
ATOM     14  C   UNL     1     -33.259 -11.964  16.653  0.00  0.00    +0.015 A 
ATOM     15  C   UNL     1     -31.991 -12.440  16.292  0.00  0.00    +0.017 A 
ATOM     16  C   UNL     1     -31.636 -12.530  14.934  0.00  0.00    +0.131 A 
ATOM     17  C   UNL     1     -32.555 -12.107  13.952  0.00  0.00    +0.091 A 
BRANCH  12  19
ATOM     18  C   UNL     1     -34.607 -11.300  11.967  0.00  0.00    +0.277 C 
ATOM     19  O   UNL     1     -34.764 -11.177  13.377  0.00  0.00    -0.495 OA
ENDBRANCH  12  19
BRANCH  16  20
ATOM     20  O   UNL     1     -30.366 -13.030  14.600  0.00  0.00    -0.494 OA
ATOM     21  C   UNL     1     -30.136 -14.157  13.762  0.00  0.00    +0.277 C 
ENDBRANCH  16  20
ENDBRANCH   1  15
BRANCH   2  22
ATOM     22  C   UNL     1     -29.915 -10.673  17.464  0.00  0.00    +0.049 C 
BRANCH  22  23
ATOM     23  C   UNL     1     -30.179  -9.707  18.623  0.00  0.00    +0.125 C 
BRANCH  23  24
ATOM     24  C   UNL     1     -31.577  -9.179  18.555  0.00  0.00    +0.305 C 
ATOM     25  O   UNL     1     -32.295  -9.155  19.590  0.00  0.00    -0.251 OA
BRANCH  24  26
ATOM     26  O   UNL     1     -32.067  -8.672  17.356  0.00  0.00    -0.481 OA
ATOM     27  H   UNL     1     -31.887  -7.712  17.086  0.00  0.00    +0.295 HD
ENDBRANCH  24  26
ENDBRANCH  23  24
ENDBRANCH  22  23
ENDBRANCH   2  22
TORSDOF 8
ENDMDL
MODEL 2
REMARK VINA RESULT:    -4.124      2.872      7.698
REMARK INTER + INTRA:          -7.268
REMARK INTER:                  -6.438
REMARK INTRA:                  -0.831
REMARK UNBOUND:                -1.337
REMARK  Name = 
REMARK  10 active torsions:
REMARK  status: ('A' for Active; 'I' for Inactive)
REMARK    1  A    between atoms: C_1  and  O_2
REMARK    2  A    between atoms: O_2  and  C_3
REMARK    3  A    between atoms: C_6  and  C_7
REMARK    4  A    between atoms: C_8  and  C_9
REMARK    5  A    between atoms: C_8  and  C_14
REMARK    6  A    between atoms: C_9  and  C_10
REMARK    7  A    between atoms: C_10  and  C_11
REMARK    8  A    between atoms: C_11  and  O_13
REMARK    9  A    between atoms: C_23  and  O_25
REMARK   10  A    between atoms: O_25  and  C_26
REMARK                            x       y       z     vdW  Elec       q    Type
REMARK                         _______ _______ _______ _____ _____    ______ ____
ROOT
ATOM      1  C   UNL     1     -30.409 -12.534  17.503  0.00  0.00    +0.017 C 
ATOM      2  C   UNL     1     -30.721 -11.338  16.960  0.00  0.00    -0.014 C 
ENDROOT
BRANCH   2   3
ATOM      3  C   UNL     1     -31.729 -11.256  15.872  0.00  0.00    +0.106 A 
ATOM      4  N   UNL     1     -31.692 -12.051  14.772  0.00  0.00    -0.239 NA
ATOM      5  C   UNL     1     -32.723 -11.784  13.929  0.00  0.00    +0.079 A 
ATOM      6  C   UNL     1     -32.942 -12.442  12.718  0.00  0.00    +0.029 A 
ATOM      7  C   UNL     1     -34.050 -12.068  11.938  0.00  0.00    +0.002 A 
ATOM      8  C   UNL     1     -34.920 -11.049  12.375  0.00  0.00    +0.001 A 
ATOM      9  C   UNL     1     -34.690 -10.395  13.596  0.00  0.00    +0.017 A 
ATOM     10  C   UNL     1     -33.585 -10.785  14.348  0.00  0.00    +0.040 A 
ATOM     11  S   UNL     1     -33.059 -10.196  15.826  0.00  0.00    -0.067 S 
ENDBRANCH   2   3
BRANCH   1  15
ATOM     12  C   UNL     1     -27.637 -13.091  20.728  0.00  0.00    +0.124 A 
ATOM     13  C   UNL     1     -27.182 -12.774  19.446  0.00  0.00    +0.046 A 
ATOM     14  C   UNL     1     -28.086 -12.591  18.399  0.00  0.00    +0.015 A 
ATOM     15  C   UNL     1     -29.464 -12.709  18.623  0.00  0.00    +0.017 A 
ATOM     16  C   UNL     1     -29.941 -13.046  19.902  0.00  0.00    +0.131 A 
ATOM     17  C   UNL     1     -29.021 -13.230  20.954  0.00  0.00    +0.091 A 
BRANCH  12  19
ATOM     18  C   UNL     1     -25.794 -14.368  21.838  0.00  0.00    +0.277 C 
ATOM     19  O   UNL     1     -26.687 -13.262  21.747  0.00  0.00    -0.495 OA
ENDBRANCH  12  19
BRANCH  16  20
ATOM     20  O   UNL     1     -31.326 -13.178  20.093  0.00  0.00    -0.494 OA
ATOM     21  C   UNL     1     -32.175 -12.153  20.596  0.00  0.00    +0.277 C 
ENDBRANCH  16  20
ENDBRANCH   1  15
BRANCH   2  22
ATOM     22  C   UNL     1     -30.159 -10.044  17.517  0.00  0.00    +0.049 C 
BRANCH  22  23
ATOM     23  C   UNL     1     -31.175  -9.366  18.441  0.00  0.00    +0.125 C 
BRANCH  23  24
ATOM     24  C   UNL     1     -30.506  -8.883  19.689  0.00  0.00    +0.305 C 
ATOM     25  O   UNL     1     -30.820  -7.767  20.183  0.00  0.00    -0.251 OA
BRANCH  24  26
ATOM     26  O   UNL     1     -29.568  -9.688  20.327  0.00  0.00    -0.481 OA
ATOM     27  H   UNL     1     -29.115  -9.380  21.179  0.00  0.00    +0.295 HD
ENDBRANCH  24  26
ENDBRANCH  23  24
ENDBRANCH  22  23
ENDBRANCH   2  22
TORSDOF 8
ENDMDL
MODEL 3
REMARK VINA RESULT:    -4.066      1.626      2.455
REMARK INTER + INTRA:          -7.185
REMARK INTER:                  -6.117
REMARK INTRA:                  -1.068
REMARK UNBOUND:                -1.337
REMARK  Name = 
REMARK  10 active torsions:
REMARK  status: ('A' for Active; 'I' for Inactive)
REMARK    1  A    between atoms: C_1  and  O_2
REMARK    2  A    between atoms: O_2  and  C_3
REMARK    3  A    between atoms: C_6  and  C_7
REMARK    4  A    between atoms: C_8  and  C_9
REMARK    5  A    between atoms: C_8  and  C_14
REMARK    6  A    between atoms: C_9  and  C_10
REMARK    7  A    between atoms: C_10  and  C_11
REMARK    8  A    between atoms: C_11  and  O_13
REMARK    9  A    between atoms: C_23  and  O_25
REMARK   10  A    between atoms: O_25  and  C_26
REMARK                            x       y       z     vdW  Elec       q    Type
REMARK                         _______ _______ _______ _____ _____    ______ ____
ROOT
ATOM      1  C   UNL     1     -30.939 -12.492  17.691  0.00  0.00    +0.017 C 
ATOM      2  C   UNL     1     -30.138 -11.782  18.513  0.00  0.00    -0.014 C 
ENDROOT
BRANCH   2   3
ATOM      3  C   UNL     1     -29.142 -12.481  19.366  0.00  0.00    +0.106 A 
ATOM      4  N   UNL     1     -27.812 -12.489  19.088  0.00  0.00    -0.239 NA
ATOM      5  C   UNL     1     -27.114 -13.192  20.017  0.00  0.00    +0.079 A 
ATOM      6  C   UNL     1     -25.730 -13.372  19.992  0.00  0.00    +0.029 A 
ATOM      7  C   UNL     1     -25.129 -14.124  21.017  0.00  0.00    +0.002 A 
ATOM      8  C   UNL     1     -25.913 -14.681  22.048  0.00  0.00    +0.001 A 
ATOM      9  C   UNL     1     -27.305 -14.491  22.062  0.00  0.00    +0.017 A 
ATOM     10  C   UNL     1     -27.873 -13.743  21.035  0.00  0.00    +0.040 A 
ATOM     11  S   UNL     1     -29.484 -13.352  20.787  0.00  0.00    -0.067 S 
ENDBRANCH   2   3
BRANCH   1  15
ATOM     12  C   UNL     1     -33.743 -10.678  14.999  0.00  0.00    +0.124 A 
ATOM     13  C   UNL     1     -32.496 -11.111  14.542  0.00  0.00    +0.046 A 
ATOM     14  C   UNL     1     -31.586 -11.703  15.419  0.00  0.00    +0.015 A 
ATOM     15  C   UNL     1     -31.918 -11.885  16.769  0.00  0.00    +0.017 A 
ATOM     16  C   UNL     1     -33.161 -11.439  17.252  0.00  0.00    +0.131 A 
ATOM     17  C   UNL     1     -34.073 -10.840  16.359  0.00  0.00    +0.091 A 
BRANCH  12  19
ATOM     18  C   UNL     1     -35.014  -8.723  14.094  0.00  0.00    +0.277 C 
ATOM     19  O   UNL     1     -34.622 -10.092  14.076  0.00  0.00    -0.495 OA
ENDBRANCH  12  19
BRANCH  16  20
ATOM     20  O   UNL     1     -33.458 -11.615  18.614  0.00  0.00    -0.494 OA
ATOM     21  C   UNL     1     -33.904 -10.581  19.484  0.00  0.00    +0.277 C 
ENDBRANCH  16  20
ENDBRANCH   1  15
BRANCH   2  22
ATOM     22  C   UNL     1     -30.136 -10.265  18.504  0.00  0.00    +0.049 C 
BRANCH  22  23
ATOM     23  C   UNL     1     -30.219  -9.716  19.931  0.00  0.00    +0.125 C 
BRANCH  23  24
ATOM     24  C   UNL     1     -30.651  -8.284  19.916  0.00  0.00    +0.305 C 
ATOM     25  O   UNL     1     -31.715  -7.951  19.327  0.00  0.00    -0.251 OA
BRANCH  24  26
ATOM     26  O   UNL     1     -29.900  -7.327  20.591  0.00  0.00    -0.481 OA
ATOM     27  H   UNL     1     -28.904  -7.452  20.728  0.00  0.00    +0.295 HD
ENDBRANCH  24  26
ENDBRANCH  23  24
ENDBRANCH  22  23
ENDBRANCH   2  22
TORSDOF 8
ENDMDL
MODEL 4
REMARK VINA RESULT:    -3.778      3.327      5.842
REMARK INTER + INTRA:          -6.771
REMARK INTER:                  -5.353
REMARK INTRA:                  -1.418
REMARK UNBOUND:                -1.337
REMARK  Name = 
REMARK  10 active torsions:
REMARK  status: ('A' for Active; 'I' for Inactive)
REMARK    1  A    between atoms: C_1  and  O_2
REMARK    2  A    between atoms: O_2  and  C_3
REMARK    3  A    between atoms: C_6  and  C_7
REMARK    4  A    between atoms: C_8  and  C_9
REMARK    5  A    between atoms: C_8  and  C_14
REMARK    6  A    between atoms: C_9  and  C_10
REMARK    7  A    between atoms: C_10  and  C_11
REMARK    8  A    between atoms: C_11  and  O_13
REMARK    9  A    between atoms: C_23  and  O_25
REMARK   10  A    between atoms: O_25  and  C_26
REMARK                            x       y       z     vdW  Elec       q    Type
REMARK                         _______ _______ _______ _____ _____    ______ ____
ROOT
ATOM      1  C   UNL     1     -30.838 -10.401  17.252  0.00  0.00    +0.017 C 
ATOM      2  C   UNL     1     -31.645 -10.327  18.331  0.00  0.00    -0.014 C 
ENDROOT
BRANCH   2   3
ATOM      3  C   UNL     1     -31.782  -9.046  19.071  0.00  0.00    +0.106 A 
ATOM      4  N   UNL     1     -30.799  -8.543  19.861  0.00  0.00    -0.239 NA
ATOM      5  C   UNL     1     -31.166  -7.362  20.423  0.00  0.00    +0.079 A 
ATOM      6  C   UNL     1     -30.360  -6.614  21.282  0.00  0.00    +0.029 A 
ATOM      7  C   UNL     1     -30.862  -5.406  21.796  0.00  0.00    +0.002 A 
ATOM      8  C   UNL     1     -32.153  -4.963  21.447  0.00  0.00    +0.001 A 
ATOM      9  C   UNL     1     -32.955  -5.724  20.580  0.00  0.00    +0.017 A 
ATOM     10  C   UNL     1     -32.433  -6.916  20.086  0.00  0.00    +0.040 A 
ATOM     11  S   UNL     1     -33.142  -8.024  19.048  0.00  0.00    -0.067 S 
ENDBRANCH   2   3
BRANCH   1  15
ATOM     12  C   UNL     1     -30.446 -13.930  14.847  0.00  0.00    +0.124 A 
ATOM     13  C   UNL     1     -31.254 -12.871  14.429  0.00  0.00    +0.046 A 
ATOM     14  C   UNL     1     -31.379 -11.723  15.211  0.00  0.00    +0.015 A 
ATOM     15  C   UNL     1     -30.682 -11.611  16.422  0.00  0.00    +0.017 A 
ATOM     16  C   UNL     1     -29.878 -12.674  16.869  0.00  0.00    +0.131 A 
ATOM     17  C   UNL     1     -29.759 -13.831  16.073  0.00  0.00    +0.091 A 
BRANCH  12  19
ATOM     18  C   UNL     1     -29.934 -15.033  12.661  0.00  0.00    +0.277 C 
ATOM     19  O   UNL     1     -30.353 -15.062  14.021  0.00  0.00    -0.495 OA
ENDBRANCH  12  19
BRANCH  16  20
ATOM     20  O   UNL     1     -29.208 -12.543  18.097  0.00  0.00    -0.494 OA
ATOM     21  C   UNL     1     -27.892 -12.022  18.249  0.00  0.00    +0.277 C 
ENDBRANCH  16  20
ENDBRANCH   1  15
BRANCH   2  22
ATOM     22  C   UNL     1     -32.525 -11.492  18.745  0.00  0.00    +0.049 C 
BRANCH  22  23
ATOM     23  C   UNL     1     -32.405 -11.753  20.249  0.00  0.00    +0.125 C 
BRANCH  23  24
ATOM     24  C   UNL     1     -31.172 -12.547  20.544  0.00  0.00    +0.305 C 
ATOM     25  O   UNL     1     -30.309 -12.100  21.347  0.00  0.00    -0.251 OA
BRANCH  24  26
ATOM     26  O   UNL     1     -31.001 -13.801  19.965  0.00  0.00    -0.481 OA
ATOM     27  H   UNL     1     -30.179 -14.009  19.412  0.00  0.00    +0.295 HD
ENDBRANCH  24  26
ENDBRANCH  23  24
ENDBRANCH  22  23
ENDBRANCH   2  22
TORSDOF 8
ENDMDL
MODEL 5
REMARK VINA RESULT:    -3.699      3.297      5.812
REMARK INTER + INTRA:          -6.658
REMARK INTER:                  -5.342
REMARK INTRA:                  -1.316
REMARK UNBOUND:                -1.337
REMARK  Name = 
REMARK  10 active torsions:
REMARK  status: ('A' for Active; 'I' for Inactive)
REMARK    1  A    between atoms: C_1  and  O_2
REMARK    2  A    between atoms: O_2  and  C_3
REMARK    3  A    between atoms: C_6  and  C_7
REMARK    4  A    between atoms: C_8  and  C_9
REMARK    5  A    between atoms: C_8  and  C_14
REMARK    6  A    between atoms: C_9  and  C_10
REMARK    7  A    between atoms: C_10  and  C_11
REMARK    8  A    between atoms: C_11  and  O_13
REMARK    9  A    between atoms: C_23  and  O_25
REMARK   10  A    between atoms: O_25  and  C_26
REMARK                            x       y       z     vdW  Elec       q    Type
REMARK                         _______ _______ _______ _____ _____    ______ ____
ROOT
ATOM      1  C   UNL     1     -31.162 -10.410  16.931  0.00  0.00    +0.017 C 
ATOM      2  C   UNL     1     -31.857 -10.375  18.088  0.00  0.00    -0.014 C 
ENDROOT
BRANCH   2   3
ATOM      3  C   UNL     1     -31.990  -9.100  18.838  0.00  0.00    +0.106 A 
ATOM      4  N   UNL     1     -31.002  -8.600  19.624  0.00  0.00    -0.239 NA
ATOM      5  C   UNL     1     -31.367  -7.424  20.197  0.00  0.00    +0.079 A 
ATOM      6  C   UNL     1     -30.556  -6.681  21.055  0.00  0.00    +0.029 A 
ATOM      7  C   UNL     1     -31.056  -5.476  21.581  0.00  0.00    +0.002 A 
ATOM      8  C   UNL     1     -32.350  -5.034  21.245  0.00  0.00    +0.001 A 
ATOM      9  C   UNL     1     -33.157  -5.790  20.379  0.00  0.00    +0.017 A 
ATOM     10  C   UNL     1     -32.637  -6.978  19.873  0.00  0.00    +0.040 A 
ATOM     11  S   UNL     1     -33.352  -8.080  18.832  0.00  0.00    -0.067 S 
ENDBRANCH   2   3
BRANCH   1  15
ATOM     12  C   UNL     1     -30.696 -13.895  14.476  0.00  0.00    +0.124 A 
ATOM     13  C   UNL     1     -29.962 -13.752  15.655  0.00  0.00    +0.046 A 
ATOM     14  C   UNL     1     -30.116 -12.619  16.454  0.00  0.00    +0.015 A 
ATOM     15  C   UNL     1     -31.023 -11.614  16.090  0.00  0.00    +0.017 A 
ATOM     16  C   UNL     1     -31.758 -11.730  14.897  0.00  0.00    +0.131 A 
ATOM     17  C   UNL     1     -31.594 -12.878  14.095  0.00  0.00    +0.091 A 
BRANCH  12  19
ATOM     18  C   UNL     1     -30.084 -15.062  12.350  0.00  0.00    +0.277 C 
ATOM     19  O   UNL     1     -30.505 -15.055  13.710  0.00  0.00    -0.495 OA
ENDBRANCH  12  19
BRANCH  16  20
ATOM     20  O   UNL     1     -32.644 -10.697  14.547  0.00  0.00    -0.494 OA
ATOM     21  C   UNL     1     -33.979 -10.895  14.097  0.00  0.00    +0.277 C 
ENDBRANCH  16  20
ENDBRANCH   1  15
BRANCH   2  22
ATOM     22  C   UNL     1     -32.620 -11.586  18.591  0.00  0.00    +0.049 C 
BRANCH  22  23
ATOM     23  C   UNL     1     -32.307 -11.849  20.067  0.00  0.00    +0.125 C 
BRANCH  23  24
ATOM     24  C   UNL     1     -31.049 -12.649  20.199  0.00  0.00    +0.305 C 
ATOM     25  O   UNL     1     -30.026 -12.134  20.725  0.00  0.00    -0.251 OA
BRANCH  24  26
ATOM     26  O   UNL     1     -31.026 -13.976  19.782  0.00  0.00    -0.481 OA
ATOM     27  H   UNL     1     -30.297 -14.606  20.096  0.00  0.00    +0.295 HD
ENDBRANCH  24  26
ENDBRANCH  23  24
ENDBRANCH  22  23
ENDBRANCH   2  22
TORSDOF 8
ENDMDL
MODEL 6
REMARK VINA RESULT:    -3.674      3.920      6.445
REMARK INTER + INTRA:          -6.622
REMARK INTER:                  -5.394
REMARK INTRA:                  -1.229
REMARK UNBOUND:                -1.337
REMARK  Name = 
REMARK  10 active torsions:
REMARK  status: ('A' for Active; 'I' for Inactive)
REMARK    1  A    between atoms: C_1  and  O_2
REMARK    2  A    between atoms: O_2  and  C_3
REMARK    3  A    between atoms: C_6  and  C_7
REMARK    4  A    between atoms: C_8  and  C_9
REMARK    5  A    between atoms: C_8  and  C_14
REMARK    6  A    between atoms: C_9  and  C_10
REMARK    7  A    between atoms: C_10  and  C_11
REMARK    8  A    between atoms: C_11  and  O_13
REMARK    9  A    between atoms: C_23  and  O_25
REMARK   10  A    between atoms: O_25  and  C_26
REMARK                            x       y       z     vdW  Elec       q    Type
REMARK                         _______ _______ _______ _____ _____    ______ ____
ROOT
ATOM      1  C   UNL     1     -33.308 -10.372  17.258  0.00  0.00    +0.017 C 
ATOM      2  C   UNL     1     -32.046 -10.437  16.784  0.00  0.00    -0.014 C 
ENDROOT
BRANCH   2   3
ATOM      3  C   UNL     1     -31.689 -11.449  15.756  0.00  0.00    +0.106 A 
ATOM      4  N   UNL     1     -30.779 -12.433  15.974  0.00  0.00    -0.239 NA
ATOM      5  C   UNL     1     -30.633 -13.228  14.883  0.00  0.00    +0.079 A 
ATOM      6  C   UNL     1     -29.767 -14.320  14.814  0.00  0.00    +0.029 A 
ATOM      7  C   UNL     1     -29.711 -15.062  13.622  0.00  0.00    +0.002 A 
ATOM      8  C   UNL     1     -30.517 -14.707  12.521  0.00  0.00    +0.001 A 
ATOM      9  C   UNL     1     -31.385 -13.607  12.603  0.00  0.00    +0.017 A 
ATOM     10  C   UNL     1     -31.420 -12.889  13.796  0.00  0.00    +0.040 A 
ATOM     11  S   UNL     1     -32.343 -11.546  14.188  0.00  0.00    -0.067 S 
ENDBRANCH   2   3
BRANCH   1  15
ATOM     12  C   UNL     1     -34.604  -7.413  20.080  0.00  0.00    +0.124 A 
ATOM     13  C   UNL     1     -34.693  -7.174  18.706  0.00  0.00    +0.046 A 
ATOM     14  C   UNL     1     -34.272  -8.138  17.790  0.00  0.00    +0.015 A 
ATOM     15  C   UNL     1     -33.769  -9.368  18.236  0.00  0.00    +0.017 A 
ATOM     16  C   UNL     1     -33.655  -9.621  19.614  0.00  0.00    +0.131 A 
ATOM     17  C   UNL     1     -34.080  -8.640  20.533  0.00  0.00    +0.091 A 
BRANCH  12  19
ATOM     18  C   UNL     1     -34.641  -5.047  20.889  0.00  0.00    +0.277 C 
ATOM     19  O   UNL     1     -35.042  -6.411  20.959  0.00  0.00    -0.495 OA
ENDBRANCH  12  19
BRANCH  16  20
ATOM     20  O   UNL     1     -33.127 -10.854  20.032  0.00  0.00    -0.494 OA
ATOM     21  C   UNL     1     -32.962 -11.244  21.390  0.00  0.00    +0.277 C 
ENDBRANCH  16  20
ENDBRANCH   1  15
BRANCH   2  22
ATOM     22  C   UNL     1     -30.995  -9.418  17.182  0.00  0.00    +0.049 C 
BRANCH  22  23
ATOM     23  C   UNL     1     -29.790 -10.107  17.829  0.00  0.00    +0.125 C 
BRANCH  23  24
ATOM     24  C   UNL     1     -29.819  -9.926  19.314  0.00  0.00    +0.305 C 
ATOM     25  O   UNL     1     -29.769 -10.930  20.074  0.00  0.00    -0.251 OA
BRANCH  24  26
ATOM     26  O   UNL     1     -29.857  -8.644  19.854  0.00  0.00    -0.481 OA
ATOM     27  H   UNL     1     -29.802  -7.828  19.256  0.00  0.00    +0.295 HD
ENDBRANCH  24  26
ENDBRANCH  23  24
ENDBRANCH  22  23
ENDBRANCH   2  22
TORSDOF 8
ENDMDL
MODEL 7
REMARK VINA RESULT:    -3.306      3.558      6.722
REMARK INTER + INTRA:          -6.092
REMARK INTER:                  -4.859
REMARK INTRA:                  -1.233
REMARK UNBOUND:                -1.337
REMARK  Name = 
REMARK  10 active torsions:
REMARK  status: ('A' for Active; 'I' for Inactive)
REMARK    1  A    between atoms: C_1  and  O_2
REMARK    2  A    between atoms: O_2  and  C_3
REMARK    3  A    between atoms: C_6  and  C_7
REMARK    4  A    between atoms: C_8  and  C_9
REMARK    5  A    between atoms: C_8  and  C_14
REMARK    6  A    between atoms: C_9  and  C_10
REMARK    7  A    between atoms: C_10  and  C_11
REMARK    8  A    between atoms: C_11  and  O_13
REMARK    9  A    between atoms: C_23  and  O_25
REMARK   10  A    between atoms: O_25  and  C_26
REMARK                            x       y       z     vdW  Elec       q    Type
REMARK                         _______ _______ _______ _____ _____    ______ ____
ROOT
ATOM      1  C   UNL     1     -31.284 -10.014  17.073  0.00  0.00    +0.017 C 
ATOM      2  C   UNL     1     -31.956 -11.166  16.863  0.00  0.00    -0.014 C 
ENDROOT
BRANCH   2   3
ATOM      3  C   UNL     1     -31.640 -12.006  15.678  0.00  0.00    +0.106 A 
ATOM      4  N   UNL     1     -30.589 -12.866  15.645  0.00  0.00    -0.239 NA
ATOM      5  C   UNL     1     -30.517 -13.517  14.455  0.00  0.00    +0.079 A 
ATOM      6  C   UNL     1     -29.541 -14.460  14.131  0.00  0.00    +0.029 A 
ATOM      7  C   UNL     1     -29.579 -15.062  12.861  0.00  0.00    +0.002 A 
ATOM      8  C   UNL     1     -30.585 -14.717  11.938  0.00  0.00    +0.001 A 
ATOM      9  C   UNL     1     -31.563 -13.766  12.275  0.00  0.00    +0.017 A 
ATOM     10  C   UNL     1     -31.501 -13.186  13.539  0.00  0.00    +0.040 A 
ATOM     11  S   UNL     1     -32.514 -12.036  14.219  0.00  0.00    -0.067 S 
ENDBRANCH   2   3
BRANCH   1  15
ATOM     12  C   UNL     1     -31.872  -7.436  20.450  0.00  0.00    +0.124 A 
ATOM     13  C   UNL     1     -32.800  -7.464  19.405  0.00  0.00    +0.046 A 
ATOM     14  C   UNL     1     -32.608  -8.304  18.309  0.00  0.00    +0.015 A 
ATOM     15  C   UNL     1     -31.488  -9.145  18.247  0.00  0.00    +0.017 A 
ATOM     16  C   UNL     1     -30.534  -9.119  19.280  0.00  0.00    +0.131 A 
ATOM     17  C   UNL     1     -30.735  -8.265  20.384  0.00  0.00    +0.091 A 
BRANCH  12  19
ATOM     18  C   UNL     1     -33.164  -5.614  21.575  0.00  0.00    +0.277 C 
ATOM     19  O   UNL     1     -32.114  -6.574  21.531  0.00  0.00    -0.495 OA
ENDBRANCH  12  19
BRANCH  16  20
ATOM     20  O   UNL     1     -29.410  -9.956  19.182  0.00  0.00    -0.494 OA
ATOM     21  C   UNL     1     -29.027 -10.914  20.162  0.00  0.00    +0.277 C 
ENDBRANCH  16  20
ENDBRANCH   1  15
BRANCH   2  22
ATOM     22  C   UNL     1     -32.950 -11.701  17.877  0.00  0.00    +0.049 C 
BRANCH  22  23
ATOM     23  C   UNL     1     -32.514 -13.078  18.387  0.00  0.00    +0.125 C 
BRANCH  23  24
ATOM     24  C   UNL     1     -31.838 -12.953  19.715  0.00  0.00    +0.305 C 
ATOM     25  O   UNL     1     -32.158 -12.023  20.503  0.00  0.00    -0.251 OA
BRANCH  24  26
ATOM     26  O   UNL     1     -30.886 -13.893  20.098  0.00  0.00    -0.481 OA
ATOM     27  H   UNL     1     -30.919 -14.840  19.740  0.00  0.00    +0.295 HD
ENDBRANCH  24  26
ENDBRANCH  23  24
ENDBRANCH  22  23
ENDBRANCH   2  22
TORSDOF 8
ENDMDL
MODEL 8
REMARK VINA RESULT:    -3.242      3.315      6.567
REMARK INTER + INTRA:          -6.000
REMARK INTER:                  -5.336
REMARK INTRA:                  -0.664
REMARK UNBOUND:                -1.337
REMARK  Name = 
REMARK  10 active torsions:
REMARK  status: ('A' for Active; 'I' for Inactive)
REMARK    1  A    between atoms: C_1  and  O_2
REMARK    2  A    between atoms: O_2  and  C_3
REMARK    3  A    between atoms: C_6  and  C_7
REMARK    4  A    between atoms: C_8  and  C_9
REMARK    5  A    between atoms: C_8  and  C_14
REMARK    6  A    between atoms: C_9  and  C_10
REMARK    7  A    between atoms: C_10  and  C_11
REMARK    8  A    between atoms: C_11  and  O_13
REMARK    9  A    between atoms: C_23  and  O_25
REMARK   10  A    between atoms: O_25  and  C_26
REMARK                            x       y       z     vdW  Elec       q    Type
REMARK                         _______ _______ _______ _____ _____    ______ ____
ROOT
ATOM      1  C   UNL     1     -31.871  -9.868  17.482  0.00  0.00    +0.017 C 
ATOM      2  C   UNL     1     -31.885 -11.215  17.570  0.00  0.00    -0.014 C 
ENDROOT
BRANCH   2   3
ATOM      3  C   UNL     1     -31.408 -12.040  16.430  0.00  0.00    +0.106 A 
ATOM      4  N   UNL     1     -30.362 -12.900  16.530  0.00  0.00    -0.239 NA
ATOM      5  C   UNL     1     -30.126 -13.536  15.354  0.00  0.00    +0.079 A 
ATOM      6  C   UNL     1     -29.114 -14.476  15.155  0.00  0.00    +0.029 A 
ATOM      7  C   UNL     1     -28.977 -15.062  13.885  0.00  0.00    +0.002 A 
ATOM      8  C   UNL     1     -29.847 -14.705  12.836  0.00  0.00    +0.001 A 
ATOM      9  C   UNL     1     -30.863 -13.758  13.048  0.00  0.00    +0.017 A 
ATOM     10  C   UNL     1     -30.976 -13.193  14.316  0.00  0.00    +0.040 A 
ATOM     11  S   UNL     1     -32.073 -12.052  14.864  0.00  0.00    -0.067 S 
ENDBRANCH   2   3
BRANCH   1  15
ATOM     12  C   UNL     1     -33.015  -7.292  20.715  0.00  0.00    +0.124 A 
ATOM     13  C   UNL     1     -31.684  -7.687  20.556  0.00  0.00    +0.046 A 
ATOM     14  C   UNL     1     -31.314  -8.523  19.502  0.00  0.00    +0.015 A 
ATOM     15  C   UNL     1     -32.271  -8.967  18.579  0.00  0.00    +0.017 A 
ATOM     16  C   UNL     1     -33.618  -8.596  18.733  0.00  0.00    +0.131 A 
ATOM     17  C   UNL     1     -33.984  -7.752  19.801  0.00  0.00    +0.091 A 
BRANCH  12  19
ATOM     18  C   UNL     1     -33.143  -5.037  21.790  0.00  0.00    +0.277 C 
ATOM     19  O   UNL     1     -33.334  -6.448  21.790  0.00  0.00    -0.495 OA
ENDBRANCH  12  19
BRANCH  16  20
ATOM     20  O   UNL     1     -34.560  -9.073  17.805  0.00  0.00    -0.494 OA
ATOM     21  C   UNL     1     -34.944  -8.389  16.618  0.00  0.00    +0.277 C 
ENDBRANCH  16  20
ENDBRANCH   1  15
BRANCH   2  22
ATOM     22  C   UNL     1     -32.259 -11.921  18.860  0.00  0.00    +0.049 C 
BRANCH  22  23
ATOM     23  C   UNL     1     -31.071 -11.948  19.826  0.00  0.00    +0.125 C 
BRANCH  23  24
ATOM     24  C   UNL     1     -30.481 -13.321  19.891  0.00  0.00    +0.305 C 
ATOM     25  O   UNL     1     -29.515 -13.558  20.664  0.00  0.00    -0.251 OA
BRANCH  24  26
ATOM     26  O   UNL     1     -31.031 -14.347  19.129  0.00  0.00    -0.481 OA
ATOM     27  H   UNL     1     -31.338 -15.209  19.563  0.00  0.00    +0.295 HD
ENDBRANCH  24  26
ENDBRANCH  23  24
ENDBRANCH  22  23
ENDBRANCH   2  22
TORSDOF 8
ENDMDL
