MODEL 1
REMARK VINA RESULT:    -3.970      0.000      0.000
REMARK INTER + INTRA:          -7.046
REMARK INTER:                  -5.711
REMARK INTRA:                  -1.335
REMARK UNBOUND:                -1.335
REMARK  Name = 
REMARK  10 active torsions:
REMARK  status: ('A' for Active; 'I' for Inactive)
REMARK    1  A    between atoms: C_1  and  O_2
REMARK    2  A    between atoms: O_2  and  C_3
REMARK    3  A    between atoms: C_6  and  C_7
REMARK    4  A    between atoms: C_8  and  C_9
REMARK    5  A    between atoms: C_8  and  C_14
REMARK    6  A    between atoms: C_9  and  C_10
REMARK    7  A    between atoms: C_10  and  C_11
REMARK    8  A    between atoms: C_11  and  O_13
REMARK    9  A    between atoms: C_23  and  O_25
REMARK   10  A    between atoms: O_25  and  C_26
REMARK                            x       y       z     vdW  Elec       q    Type
REMARK                         _______ _______ _______ _____ _____    ______ ____
ROOT
ATOM      1  C   UNL     1     -31.161 -13.150  17.130  0.00  0.00    +0.017 C 
ATOM      2  C   UNL     1     -30.254 -12.307  17.666  0.00  0.00    -0.014 C 
ENDROOT
BRANCH   2   3
ATOM      3  C   UNL     1     -29.328 -12.787  18.725  0.00  0.00    +0.106 A 
ATOM      4  N   UNL     1     -27.986 -12.880  18.543  0.00  0.00    -0.239 NA
ATOM      5  C   UNL     1     -27.362 -13.341  19.658  0.00  0.00    +0.079 A 
ATOM      6  C   UNL     1     -25.985 -13.540  19.765  0.00  0.00    +0.029 A 
ATOM      7  C   UNL     1     -25.466 -14.024  20.979  0.00  0.00    +0.002 A 
ATOM      8  C   UNL     1     -26.324 -14.300  22.062  0.00  0.00    +0.001 A 
ATOM      9  C   UNL     1     -27.708 -14.095  21.942  0.00  0.00    +0.017 A 
ATOM     10  C   UNL     1     -28.195 -13.616  20.729  0.00  0.00    +0.040 A 
ATOM     11  S   UNL     1     -29.777 -13.277  20.291  0.00  0.00    -0.067 S 
ENDBRANCH   2   3
BRANCH   1  15
ATOM     12  C   UNL     1     -33.793 -12.041  13.929  0.00  0.00    +0.124 A 
ATOM     13  C   UNL     1     -32.609 -12.736  13.669  0.00  0.00    +0.046 A 
ATOM     14  C   UNL     1     -31.755 -13.097  14.711  0.00  0.00    +0.015 A 
ATOM     15  C   UNL     1     -32.082 -12.781  16.037  0.00  0.00    +0.017 A 
ATOM     16  C   UNL     1     -33.259 -12.066  16.318  0.00  0.00    +0.131 A 
ATOM     17  C   UNL     1     -34.116 -11.703  15.258  0.00  0.00    +0.091 A 
BRANCH  12  19
ATOM     18  C   UNL     1     -34.695 -10.404  12.267  0.00  0.00    +0.277 C 
ATOM     19  O   UNL     1     -34.617 -11.703  12.845  0.00  0.00    -0.495 OA
ENDBRANCH  12  19
BRANCH  16  20
ATOM     20  O   UNL     1     -33.551 -11.743  17.654  0.00  0.00    -0.494 OA
ATOM     21  C   UNL     1     -34.457 -10.724  18.061  0.00  0.00    +0.277 C 
ENDBRANCH  16  20
ENDBRANCH   1  15
BRANCH   2  22
ATOM     22  C   UNL     1     -30.062 -10.901  17.129  0.00  0.00    +0.049 C 
BRANCH  22  23
ATOM     23  C   UNL     1     -29.828  -9.912  18.274  0.00  0.00    +0.125 C 
BRANCH  23  24
ATOM     24  C   UNL     1     -31.101  -9.211  18.628  0.00  0.00    +0.305 C 
ATOM     25  O   UNL     1     -31.498  -9.187  19.824  0.00  0.00    -0.251 OA
BRANCH  24  26
ATOM     26  O   UNL     1     -31.824  -8.548  17.641  0.00  0.00    -0.481 OA
ATOM     27  H   UNL     1     -32.578  -7.918  17.885  0.00  0.00    +0.295 HD
ENDBRANCH  24  26
ENDBRANCH  23  24
ENDBRANCH  22  23
ENDBRANCH   2  22
TORSDOF 8
ENDMDL
MODEL 2
REMARK VINA RESULT:    -3.769      3.415      5.872
REMARK INTER + INTRA:          -6.756
REMARK INTER:                  -5.335
REMARK INTRA:                  -1.421
REMARK UNBOUND:                -1.335
REMARK  Name = 
REMARK  10 active torsions:
REMARK  status: ('A' for Active; 'I' for Inactive)
REMARK    1  A    between atoms: C_1  and  O_2
REMARK    2  A    between atoms: O_2  and  C_3
REMARK    3  A    between atoms: C_6  and  C_7
REMARK    4  A    between atoms: C_8  and  C_9
REMARK    5  A    between atoms: C_8  and  C_14
REMARK    6  A    between atoms: C_9  and  C_10
REMARK    7  A    between atoms: C_10  and  C_11
REMARK    8  A    between atoms: C_11  and  O_13
REMARK    9  A    between atoms: C_23  and  O_25
REMARK   10  A    between atoms: O_25  and  C_26
REMARK                            x       y       z     vdW  Elec       q    Type
REMARK                         _______ _______ _______ _____ _____    ______ ____
ROOT
ATOM      1  C   UNL     1     -30.718 -10.397  17.378  0.00  0.00    +0.017 C 
ATOM      2  C   UNL     1     -31.553 -10.304  18.434  0.00  0.00    -0.014 C 
ENDROOT
BRANCH   2   3
ATOM      3  C   UNL     1     -31.674  -9.021  19.175  0.00  0.00    +0.106 A 
ATOM      4  N   UNL     1     -30.702  -8.552  19.999  0.00  0.00    -0.239 NA
ATOM      5  C   UNL     1     -31.050  -7.363  20.554  0.00  0.00    +0.079 A 
ATOM      6  C   UNL     1     -30.250  -6.643  21.442  0.00  0.00    +0.029 A 
ATOM      7  C   UNL     1     -30.730  -5.421  21.946  0.00  0.00    +0.002 A 
ATOM      8  C   UNL     1     -31.996  -4.938  21.557  0.00  0.00    +0.001 A 
ATOM      9  C   UNL     1     -32.792  -5.671  20.662  0.00  0.00    +0.017 A 
ATOM     10  C   UNL     1     -32.291  -6.877  20.179  0.00  0.00    +0.040 A 
ATOM     11  S   UNL     1     -33.001  -7.958  19.113  0.00  0.00    -0.067 S 
ENDBRANCH   2   3
BRANCH   1  15
ATOM     12  C   UNL     1     -30.358 -13.930  14.973  0.00  0.00    +0.124 A 
ATOM     13  C   UNL     1     -31.181 -12.876  14.570  0.00  0.00    +0.046 A 
ATOM     14  C   UNL     1     -31.296 -11.727  15.353  0.00  0.00    +0.015 A 
ATOM     15  C   UNL     1     -30.573 -11.608  16.548  0.00  0.00    +0.017 A 
ATOM     16  C   UNL     1     -29.753 -12.665  16.980  0.00  0.00    +0.131 A 
ATOM     17  C   UNL     1     -29.644 -13.824  16.183  0.00  0.00    +0.091 A 
BRANCH  12  19
ATOM     18  C   UNL     1     -29.928 -15.030  12.768  0.00  0.00    +0.277 C 
ATOM     19  O   UNL     1     -30.276 -15.063  14.148  0.00  0.00    -0.495 OA
ENDBRANCH  12  19
BRANCH  16  20
ATOM     20  O   UNL     1     -29.057 -12.528  18.192  0.00  0.00    -0.494 OA
ATOM     21  C   UNL     1     -27.761 -11.954  18.320  0.00  0.00    +0.277 C 
ENDBRANCH  16  20
ENDBRANCH   1  15
BRANCH   2  22
ATOM     22  C   UNL     1     -32.477 -11.444  18.818  0.00  0.00    +0.049 C 
BRANCH  22  23
ATOM     23  C   UNL     1     -32.354 -11.761  20.311  0.00  0.00    +0.125 C 
BRANCH  23  24
ATOM     24  C   UNL     1     -31.101 -12.533  20.580  0.00  0.00    +0.305 C 
ATOM     25  O   UNL     1     -30.225 -12.066  21.356  0.00  0.00    -0.251 OA
BRANCH  24  26
ATOM     26  O   UNL     1     -30.925 -13.788  20.005  0.00  0.00    -0.481 OA
ATOM     27  H   UNL     1     -30.306 -14.470  20.427  0.00  0.00    +0.295 HD
ENDBRANCH  24  26
ENDBRANCH  23  24
ENDBRANCH  22  23
ENDBRANCH   2  22
TORSDOF 8
ENDMDL
MODEL 3
REMARK VINA RESULT:    -3.706      3.698      6.239
REMARK INTER + INTRA:          -6.666
REMARK INTER:                  -5.497
REMARK INTRA:                  -1.169
REMARK UNBOUND:                -1.335
REMARK  Name = 
REMARK  10 active torsions:
REMARK  status: ('A' for Active; 'I' for Inactive)
REMARK    1  A    between atoms: C_1  and  O_2
REMARK    2  A    between atoms: O_2  and  C_3
REMARK    3  A    between atoms: C_6  and  C_7
REMARK    4  A    between atoms: C_8  and  C_9
REMARK    5  A    between atoms: C_8  and  C_14
REMARK    6  A    between atoms: C_9  and  C_10
REMARK    7  A    between atoms: C_10  and  C_11
REMARK    8  A    between atoms: C_11  and  O_13
REMARK    9  A    between atoms: C_23  and  O_25
REMARK   10  A    between atoms: O_25  and  C_26
REMARK                            x       y       z     vdW  Elec       q    Type
REMARK                         _______ _______ _______ _____ _____    ______ ____
ROOT
ATOM      1  C   UNL     1     -33.233 -10.464  17.246  0.00  0.00    +0.017 C 
ATOM      2  C   UNL     1     -31.993 -10.506  16.714  0.00  0.00    -0.014 C 
ENDROOT
BRANCH   2   3
ATOM      3  C   UNL     1     -31.669 -11.503  15.661  0.00  0.00    +0.106 A 
ATOM      4  N   UNL     1     -30.730 -12.470  15.826  0.00  0.00    -0.239 NA
ATOM      5  C   UNL     1     -30.624 -13.255  14.722  0.00  0.00    +0.079 A 
ATOM      6  C   UNL     1     -29.742 -14.329  14.601  0.00  0.00    +0.029 A 
ATOM      7  C   UNL     1     -29.732 -15.062  13.402  0.00  0.00    +0.002 A 
ATOM      8  C   UNL     1     -30.598 -14.715  12.346  0.00  0.00    +0.001 A 
ATOM      9  C   UNL     1     -31.483 -13.632  12.480  0.00  0.00    +0.017 A 
ATOM     10  C   UNL     1     -31.472 -12.924  13.679  0.00  0.00    +0.040 A 
ATOM     11  S   UNL     1     -32.399 -11.602  14.127  0.00  0.00    -0.067 S 
ENDBRANCH   2   3
BRANCH   1  15
ATOM     12  C   UNL     1     -34.440  -7.551  20.153  0.00  0.00    +0.124 A 
ATOM     13  C   UNL     1     -34.574  -7.291  18.787  0.00  0.00    +0.046 A 
ATOM     14  C   UNL     1     -34.182  -8.240  17.843  0.00  0.00    +0.015 A 
ATOM     15  C   UNL     1     -33.663  -9.476  18.254  0.00  0.00    +0.017 A 
ATOM     16  C   UNL     1     -33.503  -9.749  19.624  0.00  0.00    +0.131 A 
ATOM     17  C   UNL     1     -33.900  -8.783  20.571  0.00  0.00    +0.091 A 
BRANCH  12  19
ATOM     18  C   UNL     1     -33.965  -5.714  21.783  0.00  0.00    +0.277 C 
ATOM     19  O   UNL     1     -34.851  -6.563  21.061  0.00  0.00    -0.495 OA
ENDBRANCH  12  19
BRANCH  16  20
ATOM     20  O   UNL     1     -32.960 -10.987  20.006  0.00  0.00    -0.494 OA
ATOM     21  C   UNL     1     -32.346 -11.248  21.263  0.00  0.00    +0.277 C 
ENDBRANCH  16  20
ENDBRANCH   1  15
BRANCH   2  22
ATOM     22  C   UNL     1     -30.940  -9.473  17.072  0.00  0.00    +0.049 C 
BRANCH  22  23
ATOM     23  C   UNL     1     -29.646 -10.155  17.526  0.00  0.00    +0.125 C 
BRANCH  23  24
ATOM     24  C   UNL     1     -29.531 -10.118  19.017  0.00  0.00    +0.305 C 
ATOM     25  O   UNL     1     -29.163 -11.145  19.648  0.00  0.00    -0.251 OA
BRANCH  24  26
ATOM     26  O   UNL     1     -29.788  -8.934  19.701  0.00  0.00    -0.481 OA
ATOM     27  H   UNL     1     -29.447  -8.047  19.350  0.00  0.00    +0.295 HD
ENDBRANCH  24  26
ENDBRANCH  23  24
ENDBRANCH  22  23
ENDBRANCH   2  22
TORSDOF 8
ENDMDL
MODEL 4
REMARK VINA RESULT:    -3.532      3.326      5.980
REMARK INTER + INTRA:          -6.415
REMARK INTER:                  -5.192
REMARK INTRA:                  -1.223
REMARK UNBOUND:                -1.335
REMARK  Name = 
REMARK  10 active torsions:
REMARK  status: ('A' for Active; 'I' for Inactive)
REMARK    1  A    between atoms: C_1  and  O_2
REMARK    2  A    between atoms: O_2  and  C_3
REMARK    3  A    between atoms: C_6  and  C_7
REMARK    4  A    between atoms: C_8  and  C_9
REMARK    5  A    between atoms: C_8  and  C_14
REMARK    6  A    between atoms: C_9  and  C_10
REMARK    7  A    between atoms: C_10  and  C_11
REMARK    8  A    between atoms: C_11  and  O_13
REMARK    9  A    between atoms: C_23  and  O_25
REMARK   10  A    between atoms: O_25  and  C_26
REMARK                            x       y       z     vdW  Elec       q    Type
REMARK                         _______ _______ _______ _____ _____    ______ ____
ROOT
ATOM      1  C   UNL     1     -31.226 -10.393  16.869  0.00  0.00    +0.017 C 
ATOM      2  C   UNL     1     -31.908 -10.361  18.033  0.00  0.00    -0.014 C 
ENDROOT
BRANCH   2   3
ATOM      3  C   UNL     1     -32.034  -9.087  18.787  0.00  0.00    +0.106 A 
ATOM      4  N   UNL     1     -33.091  -8.246  18.640  0.00  0.00    -0.239 NA
ATOM      5  C   UNL     1     -32.974  -7.154  19.439  0.00  0.00    +0.079 A 
ATOM      6  C   UNL     1     -33.907  -6.119  19.500  0.00  0.00    +0.029 A 
ATOM      7  C   UNL     1     -33.665  -5.043  20.372  0.00  0.00    +0.002 A 
ATOM      8  C   UNL     1     -32.501  -5.016  21.166  0.00  0.00    +0.001 A 
ATOM      9  C   UNL     1     -31.569  -6.064  21.096  0.00  0.00    +0.017 A 
ATOM     10  C   UNL     1     -31.834  -7.117  20.224  0.00  0.00    +0.040 A 
ATOM     11  S   UNL     1     -30.921  -8.490  19.926  0.00  0.00    -0.067 S 
ENDBRANCH   2   3
BRANCH   1  15
ATOM     12  C   UNL     1     -30.783 -13.874  14.403  0.00  0.00    +0.124 A 
ATOM     13  C   UNL     1     -30.053 -13.743  15.586  0.00  0.00    +0.046 A 
ATOM     14  C   UNL     1     -30.199 -12.611  16.388  0.00  0.00    +0.015 A 
ATOM     15  C   UNL     1     -31.094 -11.595  16.024  0.00  0.00    +0.017 A 
ATOM     16  C   UNL     1     -31.825 -11.700  14.827  0.00  0.00    +0.131 A 
ATOM     17  C   UNL     1     -31.669 -12.847  14.022  0.00  0.00    +0.091 A 
BRANCH  12  19
ATOM     18  C   UNL     1     -29.968 -15.062  12.358  0.00  0.00    +0.277 C 
ATOM     19  O   UNL     1     -30.600 -15.033  13.634  0.00  0.00    -0.495 OA
ENDBRANCH  12  19
BRANCH  16  20
ATOM     20  O   UNL     1     -32.699 -10.657  14.477  0.00  0.00    -0.494 OA
ATOM     21  C   UNL     1     -34.101 -10.807  14.284  0.00  0.00    +0.277 C 
ENDBRANCH  16  20
ENDBRANCH   1  15
BRANCH   2  22
ATOM     22  C   UNL     1     -32.666 -11.574  18.542  0.00  0.00    +0.049 C 
BRANCH  22  23
ATOM     23  C   UNL     1     -32.329 -11.845  20.011  0.00  0.00    +0.125 C 
BRANCH  23  24
ATOM     24  C   UNL     1     -31.067 -12.640  20.120  0.00  0.00    +0.305 C 
ATOM     25  O   UNL     1     -30.015 -12.099  20.555  0.00  0.00    -0.251 OA
BRANCH  24  26
ATOM     26  O   UNL     1     -31.068 -13.989  19.782  0.00  0.00    -0.481 OA
ATOM     27  H   UNL     1     -30.360 -14.370  19.165  0.00  0.00    +0.295 HD
ENDBRANCH  24  26
ENDBRANCH  23  24
ENDBRANCH  22  23
ENDBRANCH   2  22
TORSDOF 8
ENDMDL
MODEL 5
REMARK VINA RESULT:    -3.450      3.659      6.209
REMARK INTER + INTRA:          -6.297
REMARK INTER:                  -5.540
REMARK INTRA:                  -0.758
REMARK UNBOUND:                -1.335
REMARK  Name = 
REMARK  10 active torsions:
REMARK  status: ('A' for Active; 'I' for Inactive)
REMARK    1  A    between atoms: C_1  and  O_2
REMARK    2  A    between atoms: O_2  and  C_3
REMARK    3  A    between atoms: C_6  and  C_7
REMARK    4  A    between atoms: C_8  and  C_9
REMARK    5  A    between atoms: C_8  and  C_14
REMARK    6  A    between atoms: C_9  and  C_10
REMARK    7  A    between atoms: C_10  and  C_11
REMARK    8  A    between atoms: C_11  and  O_13
REMARK    9  A    between atoms: C_23  and  O_25
REMARK   10  A    between atoms: O_25  and  C_26
REMARK                            x       y       z     vdW  Elec       q    Type
REMARK                         _______ _______ _______ _____ _____    ______ ____
ROOT
ATOM      1  C   UNL     1     -33.250 -10.284  16.886  0.00  0.00    +0.017 C 
ATOM      2  C   UNL     1     -31.962 -10.441  16.513  0.00  0.00    -0.014 C 
ENDROOT
BRANCH   2   3
ATOM      3  C   UNL     1     -31.599 -11.480  15.515  0.00  0.00    +0.106 A 
ATOM      4  N   UNL     1     -30.603 -12.381  15.719  0.00  0.00    -0.239 NA
ATOM      5  C   UNL     1     -30.470 -13.224  14.663  0.00  0.00    +0.079 A 
ATOM      6  C   UNL     1     -29.529 -14.252  14.589  0.00  0.00    +0.029 A 
ATOM      7  C   UNL     1     -29.497 -15.055  13.435  0.00  0.00    +0.002 A 
ATOM      8  C   UNL     1     -30.399 -14.823  12.378  0.00  0.00    +0.001 A 
ATOM      9  C   UNL     1     -31.342 -13.786  12.464  0.00  0.00    +0.017 A 
ATOM     10  C   UNL     1     -31.352 -13.006  13.618  0.00  0.00    +0.040 A 
ATOM     11  S   UNL     1     -32.347 -11.714  14.005  0.00  0.00    -0.067 S 
ENDBRANCH   2   3
BRANCH   1  15
ATOM     12  C   UNL     1     -34.634  -7.307  19.646  0.00  0.00    +0.124 A 
ATOM     13  C   UNL     1     -33.903  -8.408  20.096  0.00  0.00    +0.046 A 
ATOM     14  C   UNL     1     -33.452  -9.375  19.197  0.00  0.00    +0.015 A 
ATOM     15  C   UNL     1     -33.713  -9.245  17.826  0.00  0.00    +0.017 A 
ATOM     16  C   UNL     1     -34.464  -8.153  17.355  0.00  0.00    +0.131 A 
ATOM     17  C   UNL     1     -34.917  -7.181  18.271  0.00  0.00    +0.091 A 
BRANCH  12  19
ATOM     18  C   UNL     1     -34.191  -5.602  21.422  0.00  0.00    +0.277 C 
ATOM     19  O   UNL     1     -35.062  -6.362  20.591  0.00  0.00    -0.495 OA
ENDBRANCH  12  19
BRANCH  16  20
ATOM     20  O   UNL     1     -34.729  -8.059  15.979  0.00  0.00    -0.494 OA
ATOM     21  C   UNL     1     -34.928  -6.839  15.275  0.00  0.00    +0.277 C 
ENDBRANCH  16  20
ENDBRANCH   1  15
BRANCH   2  22
ATOM     22  C   UNL     1     -30.876  -9.496  16.993  0.00  0.00    +0.049 C 
BRANCH  22  23
ATOM     23  C   UNL     1     -29.756 -10.271  17.694  0.00  0.00    +0.125 C 
BRANCH  23  24
ATOM     24  C   UNL     1     -29.838 -10.082  19.175  0.00  0.00    +0.305 C 
ATOM     25  O   UNL     1     -29.947 -11.082  19.935  0.00  0.00    -0.251 OA
BRANCH  24  26
ATOM     26  O   UNL     1     -29.748  -8.803  19.716  0.00  0.00    -0.481 OA
ATOM     27  H   UNL     1     -29.539  -8.005  19.128  0.00  0.00    +0.295 HD
ENDBRANCH  24  26
ENDBRANCH  23  24
ENDBRANCH  22  23
ENDBRANCH   2  22
TORSDOF 8
ENDMDL
MODEL 6
REMARK VINA RESULT:    -3.378      3.324      6.436
REMARK INTER + INTRA:          -6.193
REMARK INTER:                  -5.181
REMARK INTRA:                  -1.012
REMARK UNBOUND:                -1.335
REMARK  Name = 
REMARK  10 active torsions:
REMARK  status: ('A' for Active; 'I' for Inactive)
REMARK    1  A    between atoms: C_1  and  O_2
REMARK    2  A    between atoms: O_2  and  C_3
REMARK    3  A    between atoms: C_6  and  C_7
REMARK    4  A    between atoms: C_8  and  C_9
REMARK    5  A    between atoms: C_8  and  C_14
REMARK    6  A    between atoms: C_9  and  C_10
REMARK    7  A    between atoms: C_10  and  C_11
REMARK    8  A    between atoms: C_11  and  O_13
REMARK    9  A    between atoms: C_23  and  O_25
REMARK   10  A    between atoms: O_25  and  C_26
REMARK                            x       y       z     vdW  Elec       q    Type
REMARK                         _______ _______ _______ _____ _____    ______ ____
ROOT
ATOM      1  C   UNL     1     -31.273 -10.114  17.299  0.00  0.00    +0.017 C 
ATOM      2  C   UNL     1     -31.602 -11.422  17.240  0.00  0.00    -0.014 C 
ENDROOT
BRANCH   2   3
ATOM      3  C   UNL     1     -31.249 -12.224  16.040  0.00  0.00    +0.106 A 
ATOM      4  N   UNL     1     -30.123 -12.980  15.965  0.00  0.00    -0.239 NA
ATOM      5  C   UNL     1     -30.030 -13.617  14.769  0.00  0.00    +0.079 A 
ATOM      6  C   UNL     1     -28.981 -14.462  14.406  0.00  0.00    +0.029 A 
ATOM      7  C   UNL     1     -29.006 -15.062  13.135  0.00  0.00    +0.002 A 
ATOM      8  C   UNL     1     -30.072 -14.811  12.248  0.00  0.00    +0.001 A 
ATOM      9  C   UNL     1     -31.124 -13.959  12.626  0.00  0.00    +0.017 A 
ATOM     10  C   UNL     1     -31.073 -13.379  13.890  0.00  0.00    +0.040 A 
ATOM     11  S   UNL     1     -32.166 -12.334  14.612  0.00  0.00    -0.067 S 
ENDBRANCH   2   3
BRANCH   1  15
ATOM     12  C   UNL     1     -32.015  -7.659  20.737  0.00  0.00    +0.124 A 
ATOM     13  C   UNL     1     -30.784  -8.298  20.571  0.00  0.00    +0.046 A 
ATOM     14  C   UNL     1     -30.544  -9.094  19.451  0.00  0.00    +0.015 A 
ATOM     15  C   UNL     1     -31.531  -9.252  18.469  0.00  0.00    +0.017 A 
ATOM     16  C   UNL     1     -32.783  -8.633  18.627  0.00  0.00    +0.131 A 
ATOM     17  C   UNL     1     -33.018  -7.831  19.763  0.00  0.00    +0.091 A 
BRANCH  12  19
ATOM     18  C   UNL     1     -32.434  -5.463  21.858  0.00  0.00    +0.277 C 
ATOM     19  O   UNL     1     -32.205  -6.868  21.880  0.00  0.00    -0.495 OA
ENDBRANCH  12  19
BRANCH  16  20
ATOM     20  O   UNL     1     -33.761  -8.827  17.637  0.00  0.00    -0.494 OA
ATOM     21  C   UNL     1     -34.672  -7.827  17.194  0.00  0.00    +0.277 C 
ENDBRANCH  16  20
ENDBRANCH   1  15
BRANCH   2  22
ATOM     22  C   UNL     1     -32.218 -12.139  18.427  0.00  0.00    +0.049 C 
BRANCH  22  23
ATOM     23  C   UNL     1     -31.355 -13.334  18.844  0.00  0.00    +0.125 C 
BRANCH  23  24
ATOM     24  C   UNL     1     -30.762 -13.104  20.198  0.00  0.00    +0.305 C 
ATOM     25  O   UNL     1     -31.161 -12.142  20.907  0.00  0.00    -0.251 OA
BRANCH  24  26
ATOM     26  O   UNL     1     -29.800 -13.980  20.689  0.00  0.00    -0.481 OA
ATOM     27  H   UNL     1     -30.059 -14.901  21.022  0.00  0.00    +0.295 HD
ENDBRANCH  24  26
ENDBRANCH  23  24
ENDBRANCH  22  23
ENDBRANCH   2  22
TORSDOF 8
ENDMDL
MODEL 7
REMARK VINA RESULT:    -3.352      1.716      2.394
REMARK INTER + INTRA:          -6.156
REMARK INTER:                  -5.935
REMARK INTRA:                  -0.221
REMARK UNBOUND:                -1.335
REMARK  Name = 
REMARK  10 active torsions:
REMARK  status: ('A' for Active; 'I' for Inactive)
REMARK    1  A    between atoms: C_1  and  O_2
REMARK    2  A    between atoms: O_2  and  C_3
REMARK    3  A    between atoms: C_6  and  C_7
REMARK    4  A    between atoms: C_8  and  C_9
REMARK    5  A    between atoms: C_8  and  C_14
REMARK    6  A    between atoms: C_9  and  C_10
REMARK    7  A    between atoms: C_10  and  C_11
REMARK    8  A    between atoms: C_11  and  O_13
REMARK    9  A    between atoms: C_23  and  O_25
REMARK   10  A    between atoms: O_25  and  C_26
REMARK                            x       y       z     vdW  Elec       q    Type
REMARK                         _______ _______ _______ _____ _____    ______ ____
ROOT
ATOM      1  C   UNL     1     -30.516 -11.816  17.326  0.00  0.00    +0.017 C 
ATOM      2  C   UNL     1     -30.632 -11.965  18.662  0.00  0.00    -0.014 C 
ENDROOT
BRANCH   2   3
ATOM      3  C   UNL     1     -29.526 -12.581  19.440  0.00  0.00    +0.106 A 
ATOM      4  N   UNL     1     -28.223 -12.484  19.071  0.00  0.00    -0.239 NA
ATOM      5  C   UNL     1     -27.408 -13.127  19.946  0.00  0.00    +0.079 A 
ATOM      6  C   UNL     1     -26.019 -13.197  19.824  0.00  0.00    +0.029 A 
ATOM      7  C   UNL     1     -25.290 -13.896  20.803  0.00  0.00    +0.002 A 
ATOM      8  C   UNL     1     -25.954 -14.511  21.883  0.00  0.00    +0.001 A 
ATOM      9  C   UNL     1     -27.352 -14.432  21.996  0.00  0.00    +0.017 A 
ATOM     10  C   UNL     1     -28.048 -13.734  21.013  0.00  0.00    +0.040 A 
ATOM     11  S   UNL     1     -29.698 -13.472  20.879  0.00  0.00    -0.067 S 
ENDBRANCH   2   3
BRANCH   1  15
ATOM     12  C   UNL     1     -33.517  -9.931  14.911  0.00  0.00    +0.124 A 
ATOM     13  C   UNL     1     -33.022  -9.297  16.053  0.00  0.00    +0.046 A 
ATOM     14  C   UNL     1     -32.044  -9.911  16.836  0.00  0.00    +0.015 A 
ATOM     15  C   UNL     1     -31.534 -11.167  16.478  0.00  0.00    +0.017 A 
ATOM     16  C   UNL     1     -32.034 -11.829  15.343  0.00  0.00    +0.131 A 
ATOM     17  C   UNL     1     -33.023 -11.202  14.558  0.00  0.00    +0.091 A 
BRANCH  12  19
ATOM     18  C   UNL     1     -35.061  -8.006  14.498  0.00  0.00    +0.277 C 
ATOM     19  O   UNL     1     -34.499  -9.269  14.156  0.00  0.00    -0.495 OA
ENDBRANCH  12  19
BRANCH  16  20
ATOM     20  O   UNL     1     -31.520 -13.096  15.020  0.00  0.00    -0.494 OA
ATOM     21  C   UNL     1     -31.386 -13.602  13.697  0.00  0.00    +0.277 C 
ENDBRANCH  16  20
ENDBRANCH   1  15
BRANCH   2  22
ATOM     22  C   UNL     1     -31.819 -11.404  19.423  0.00  0.00    +0.049 C 
BRANCH  22  23
ATOM     23  C   UNL     1     -31.350 -10.533  20.591  0.00  0.00    +0.125 C 
BRANCH  23  24
ATOM     24  C   UNL     1     -31.111  -9.129  20.133  0.00  0.00    +0.305 C 
ATOM     25  O   UNL     1     -32.086  -8.359  19.920  0.00  0.00    -0.251 OA
BRANCH  24  26
ATOM     26  O   UNL     1     -29.809  -8.662  19.985  0.00  0.00    -0.481 OA
ATOM     27  H   UNL     1     -29.214  -8.520  20.792  0.00  0.00    +0.295 HD
ENDBRANCH  24  26
ENDBRANCH  23  24
ENDBRANCH  22  23
ENDBRANCH   2  22
TORSDOF 8
ENDMDL
MODEL 8
REMARK VINA RESULT:    -3.343      3.789      6.116
REMARK INTER + INTRA:          -6.143
REMARK INTER:                  -5.053
REMARK INTRA:                  -1.090
REMARK UNBOUND:                -1.335
REMARK  Name = 
REMARK  10 active torsions:
REMARK  status: ('A' for Active; 'I' for Inactive)
REMARK    1  A    between atoms: C_1  and  O_2
REMARK    2  A    between atoms: O_2  and  C_3
REMARK    3  A    between atoms: C_6  and  C_7
REMARK    4  A    between atoms: C_8  and  C_9
REMARK    5  A    between atoms: C_8  and  C_14
REMARK    6  A    between atoms: C_9  and  C_10
REMARK    7  A    between atoms: C_10  and  C_11
REMARK    8  A    between atoms: C_11  and  O_13
REMARK    9  A    between atoms: C_23  and  O_25
REMARK   10  A    between atoms: O_25  and  C_26
REMARK                            x       y       z     vdW  Elec       q    Type
REMARK                         _______ _______ _______ _____ _____    ______ ____
ROOT
ATOM      1  C   UNL     1     -32.176 -10.029  16.468  0.00  0.00    +0.017 C 
ATOM      2  C   UNL     1     -32.325 -11.369  16.529  0.00  0.00    -0.014 C 
ENDROOT
BRANCH   2   3
ATOM      3  C   UNL     1     -31.594 -12.243  15.575  0.00  0.00    +0.106 A 
ATOM      4  N   UNL     1     -30.420 -12.851  15.885  0.00  0.00    -0.239 NA
ATOM      5  C   UNL     1     -29.956 -13.596  14.848  0.00  0.00    +0.079 A 
ATOM      6  C   UNL     1     -28.771 -14.333  14.875  0.00  0.00    +0.029 A 
ATOM      7  C   UNL     1     -28.404 -15.062  13.731  0.00  0.00    +0.002 A 
ATOM      8  C   UNL     1     -29.220 -15.047  12.582  0.00  0.00    +0.001 A 
ATOM      9  C   UNL     1     -30.411 -14.302  12.567  0.00  0.00    +0.017 A 
ATOM     10  C   UNL     1     -30.750 -13.589  13.714  0.00  0.00    +0.040 A 
ATOM     11  S   UNL     1     -32.089 -12.621  13.992  0.00  0.00    -0.067 S 
ENDBRANCH   2   3
BRANCH   1  15
ATOM     12  C   UNL     1     -34.036  -7.245  19.148  0.00  0.00    +0.124 A 
ATOM     13  C   UNL     1     -34.722  -7.722  18.028  0.00  0.00    +0.046 A 
ATOM     14  C   UNL     1     -34.116  -8.629  17.159  0.00  0.00    +0.015 A 
ATOM     15  C   UNL     1     -32.814  -9.086  17.406  0.00  0.00    +0.017 A 
ATOM     16  C   UNL     1     -32.101  -8.604  18.517  0.00  0.00    +0.131 A 
ATOM     17  C   UNL     1     -32.721  -7.686  19.390  0.00  0.00    +0.091 A 
BRANCH  12  19
ATOM     18  C   UNL     1     -34.208  -5.927  21.267  0.00  0.00    +0.277 C 
ATOM     19  O   UNL     1     -34.692  -6.336  19.992  0.00  0.00    -0.495 OA
ENDBRANCH  12  19
BRANCH  16  20
ATOM     20  O   UNL     1     -30.790  -9.063  18.728  0.00  0.00    -0.494 OA
ATOM     21  C   UNL     1     -30.214  -9.306  20.006  0.00  0.00    +0.277 C 
ENDBRANCH  16  20
ENDBRANCH   1  15
BRANCH   2  22
ATOM     22  C   UNL     1     -33.128 -12.028  17.634  0.00  0.00    +0.049 C 
BRANCH  22  23
ATOM     23  C   UNL     1     -32.385 -13.245  18.191  0.00  0.00    +0.125 C 
BRANCH  23  24
ATOM     24  C   UNL     1     -31.797 -12.931  19.530  0.00  0.00    +0.305 C 
ATOM     25  O   UNL     1     -32.204 -11.931  20.181  0.00  0.00    -0.251 OA
BRANCH  24  26
ATOM     26  O   UNL     1     -30.830 -13.770  20.076  0.00  0.00    -0.481 OA
ATOM     27  H   UNL     1     -30.001 -13.389  20.514  0.00  0.00    +0.295 HD
ENDBRANCH  24  26
ENDBRANCH  23  24
ENDBRANCH  22  23
ENDBRANCH   2  22
TORSDOF 8
ENDMDL
MODEL 9
REMARK VINA RESULT:    -2.955      2.920      6.722
REMARK INTER + INTRA:          -5.586
REMARK INTER:                  -4.941
REMARK INTRA:                  -0.644
REMARK UNBOUND:                -1.335
REMARK  Name = 
REMARK  10 active torsions:
REMARK  status: ('A' for Active; 'I' for Inactive)
REMARK    1  A    between atoms: C_1  and  O_2
REMARK    2  A    between atoms: O_2  and  C_3
REMARK    3  A    between atoms: C_6  and  C_7
REMARK    4  A    between atoms: C_8  and  C_9
REMARK    5  A    between atoms: C_8  and  C_14
REMARK    6  A    between atoms: C_9  and  C_10
REMARK    7  A    between atoms: C_10  and  C_11
REMARK    8  A    between atoms: C_11  and  O_13
REMARK    9  A    between atoms: C_23  and  O_25
REMARK   10  A    between atoms: O_25  and  C_26
REMARK                            x       y       z     vdW  Elec       q    Type
REMARK                         _______ _______ _______ _____ _____    ______ ____
ROOT
ATOM      1  C   UNL     1     -30.790 -10.199  17.880  0.00  0.00    +0.017 C 
ATOM      2  C   UNL     1     -31.580 -11.237  17.535  0.00  0.00    -0.014 C 
ENDROOT
BRANCH   2   3
ATOM      3  C   UNL     1     -31.164 -12.159  16.446  0.00  0.00    +0.106 A 
ATOM      4  N   UNL     1     -31.723 -12.137  15.209  0.00  0.00    -0.239 NA
ATOM      5  C   UNL     1     -31.170 -13.072  14.395  0.00  0.00    +0.079 A 
ATOM      6  C   UNL     1     -31.544 -13.283  13.067  0.00  0.00    +0.029 A 
ATOM      7  C   UNL     1     -30.890 -14.287  12.332  0.00  0.00    +0.002 A 
ATOM      8  C   UNL     1     -29.876 -15.062  12.929  0.00  0.00    +0.001 A 
ATOM      9  C   UNL     1     -29.507 -14.840  14.267  0.00  0.00    +0.017 A 
ATOM     10  C   UNL     1     -30.171 -13.840  14.970  0.00  0.00    +0.040 A 
ATOM     11  S   UNL     1     -29.954 -13.350  16.558  0.00  0.00    -0.067 S 
ENDBRANCH   2   3
BRANCH   1  15
ATOM     12  C   UNL     1     -31.637  -7.441  21.053  0.00  0.00    +0.124 A 
ATOM     13  C   UNL     1     -32.202  -7.265  19.788  0.00  0.00    +0.046 A 
ATOM     14  C   UNL     1     -31.927  -8.164  18.757  0.00  0.00    +0.015 A 
ATOM     15  C   UNL     1     -31.091  -9.266  18.982  0.00  0.00    +0.017 A 
ATOM     16  C   UNL     1     -30.497  -9.450  20.244  0.00  0.00    +0.131 A 
ATOM     17  C   UNL     1     -30.780  -8.535  21.279  0.00  0.00    +0.091 A 
BRANCH  12  19
ATOM     18  C   UNL     1     -33.115  -5.693  22.062  0.00  0.00    +0.277 C 
ATOM     19  O   UNL     1     -31.948  -6.509  22.055  0.00  0.00    -0.495 OA
ENDBRANCH  12  19
BRANCH  16  20
ATOM     20  O   UNL     1     -29.646 -10.551  20.435  0.00  0.00    -0.494 OA
ATOM     21  C   UNL     1     -29.514 -11.269  21.657  0.00  0.00    +0.277 C 
ENDBRANCH  16  20
ENDBRANCH   1  15
BRANCH   2  22
ATOM     22  C   UNL     1     -32.836 -11.572  18.317  0.00  0.00    +0.049 C 
BRANCH  22  23
ATOM     23  C   UNL     1     -33.993 -10.660  17.899  0.00  0.00    +0.125 C 
BRANCH  23  24
ATOM     24  C   UNL     1     -34.469 -11.015  16.526  0.00  0.00    +0.305 C 
ATOM     25  O   UNL     1     -34.693 -10.108  15.680  0.00  0.00    -0.251 OA
BRANCH  24  26
ATOM     26  O   UNL     1     -34.621 -12.352  16.171  0.00  0.00    -0.481 OA
ATOM     27  H   UNL     1     -34.644 -13.077  16.878  0.00  0.00    +0.295 HD
ENDBRANCH  24  26
ENDBRANCH  23  24
ENDBRANCH  22  23
ENDBRANCH   2  22
TORSDOF 8
ENDMDL
