MODEL 1
REMARK VINA RESULT:    -4.960      0.000      0.000
REMARK INTER + INTRA:          -7.217
REMARK INTER:                  -7.135
REMARK INTRA:                  -0.082
REMARK UNBOUND:                -0.082
REMARK  Name = 
REMARK  10 active torsions:
REMARK  status: ('A' for Active; 'I' for Inactive)
REMARK    1  A    between atoms: C_1  and  O_2
REMARK    2  A    between atoms: O_2  and  C_3
REMARK    3  A    between atoms: C_6  and  C_7
REMARK    4  A    between atoms: C_8  and  C_9
REMARK    5  A    between atoms: C_8  and  C_14
REMARK    6  A    between atoms: C_9  and  C_10
REMARK    7  A    between atoms: C_10  and  C_11
REMARK    8  A    between atoms: C_11  and  O_13
REMARK    9  A    between atoms: C_23  and  O_25
REMARK   10  A    between atoms: O_25  and  C_26
REMARK                            x       y       z     vdW  Elec       q    Type
REMARK                         _______ _______ _______ _____ _____    ______ ____
ROOT
ATOM      1  C   UNL     1     -30.559 -11.924  17.747  0.00  0.00    +0.017 C 
ATOM      2  C   UNL     1     -31.171 -12.729  16.854  0.00  0.00    -0.014 C 
ENDROOT
BRANCH   2   3
ATOM      3  C   UNL     1     -32.101 -12.153  15.849  0.00  0.00    +0.106 A 
ATOM      4  N   UNL     1     -32.292 -12.702  14.621  0.00  0.00    -0.239 NA
ATOM      5  C   UNL     1     -33.191 -11.992  13.892  0.00  0.00    +0.079 A 
ATOM      6  C   UNL     1     -33.584 -12.317  12.593  0.00  0.00    +0.029 A 
ATOM      7  C   UNL     1     -34.526 -11.497  11.948  0.00  0.00    +0.002 A 
ATOM      8  C   UNL     1     -35.059 -10.369  12.604  0.00  0.00    +0.001 A 
ATOM      9  C   UNL     1     -34.655 -10.052  13.912  0.00  0.00    +0.017 A 
ATOM     10  C   UNL     1     -33.722 -10.882  14.526  0.00  0.00    +0.040 A 
ATOM     11  S   UNL     1     -33.057 -10.761  16.060  0.00  0.00    -0.067 S 
ENDBRANCH   2   3
BRANCH   1  15
ATOM     12  C   UNL     1     -27.691 -13.341  20.604  0.00  0.00    +0.124 A 
ATOM     13  C   UNL     1     -27.275 -12.828  19.373  0.00  0.00    +0.046 A 
ATOM     14  C   UNL     1     -28.209 -12.365  18.446  0.00  0.00    +0.015 A 
ATOM     15  C   UNL     1     -29.579 -12.396  18.744  0.00  0.00    +0.017 A 
ATOM     16  C   UNL     1     -30.018 -12.926  19.970  0.00  0.00    +0.131 A 
ATOM     17  C   UNL     1     -29.067 -13.392  20.900  0.00  0.00    +0.091 A 
BRANCH  12  19
ATOM     18  C   UNL     1     -25.355 -14.050  21.150  0.00  0.00    +0.277 C 
ATOM     19  O   UNL     1     -26.710 -13.790  21.502  0.00  0.00    -0.495 OA
ENDBRANCH  12  19
BRANCH  16  20
ATOM     20  O   UNL     1     -31.398 -12.964  20.233  0.00  0.00    -0.494 OA
ATOM     21  C   UNL     1     -32.178 -11.839  20.623  0.00  0.00    +0.277 C 
ENDBRANCH  16  20
ENDBRANCH   1  15
BRANCH   2  22
ATOM     22  C   UNL     1     -30.841 -14.208  16.761  0.00  0.00    +0.049 C 
BRANCH  22  23
ATOM     23  C   UNL     1     -30.468 -14.589  15.326  0.00  0.00    +0.125 C 
BRANCH  23  24
ATOM     24  C   UNL     1     -28.992 -14.468  15.119  0.00  0.00    +0.305 C 
ATOM     25  O   UNL     1     -28.531 -14.240  13.968  0.00  0.00    -0.251 OA
BRANCH  24  26
ATOM     26  O   UNL     1     -28.131 -14.562  16.208  0.00  0.00    -0.481 OA
ATOM     27  H   UNL     1     -27.394 -15.257  16.229  0.00  0.00    +0.295 HD
ENDBRANCH  24  26
ENDBRANCH  23  24
ENDBRANCH  22  23
ENDBRANCH   2  22
TORSDOF 8
ENDMDL
MODEL 2
REMARK VINA RESULT:    -4.754      4.115      7.997
REMARK INTER + INTRA:          -6.921
REMARK INTER:                  -5.619
REMARK INTRA:                  -1.302
REMARK UNBOUND:                -0.082
REMARK  Name = 
REMARK  10 active torsions:
REMARK  status: ('A' for Active; 'I' for Inactive)
REMARK    1  A    between atoms: C_1  and  O_2
REMARK    2  A    between atoms: O_2  and  C_3
REMARK    3  A    between atoms: C_6  and  C_7
REMARK    4  A    between atoms: C_8  and  C_9
REMARK    5  A    between atoms: C_8  and  C_14
REMARK    6  A    between atoms: C_9  and  C_10
REMARK    7  A    between atoms: C_10  and  C_11
REMARK    8  A    between atoms: C_11  and  O_13
REMARK    9  A    between atoms: C_23  and  O_25
REMARK   10  A    between atoms: O_25  and  C_26
REMARK                            x       y       z     vdW  Elec       q    Type
REMARK                         _______ _______ _______ _____ _____    ______ ____
ROOT
ATOM      1  C   UNL     1     -30.883 -10.160  20.184  0.00  0.00    +0.017 C 
ATOM      2  C   UNL     1     -29.871 -10.566  19.388  0.00  0.00    -0.014 C 
ENDROOT
BRANCH   2   3
ATOM      3  C   UNL     1     -28.942 -11.629  19.851  0.00  0.00    +0.106 A 
ATOM      4  N   UNL     1     -27.629 -11.662  19.504  0.00  0.00    -0.239 NA
ATOM      5  C   UNL     1     -26.995 -12.729  20.056  0.00  0.00    +0.079 A 
ATOM      6  C   UNL     1     -25.643 -13.022  19.874  0.00  0.00    +0.029 A 
ATOM      7  C   UNL     1     -25.109 -14.161  20.503  0.00  0.00    +0.002 A 
ATOM      8  C   UNL     1     -25.927 -14.986  21.300  0.00  0.00    +0.001 A 
ATOM      9  C   UNL     1     -27.287 -14.680  21.476  0.00  0.00    +0.017 A 
ATOM     10  C   UNL     1     -27.789 -13.547  20.842  0.00  0.00    +0.040 A 
ATOM     11  S   UNL     1     -29.349 -12.935  20.863  0.00  0.00    -0.067 S 
ENDBRANCH   2   3
BRANCH   1  15
ATOM     12  C   UNL     1     -33.798  -7.255  18.978  0.00  0.00    +0.124 A 
ATOM     13  C   UNL     1     -34.066  -8.621  18.864  0.00  0.00    +0.046 A 
ATOM     14  C   UNL     1     -33.117  -9.565  19.258  0.00  0.00    +0.015 A 
ATOM     15  C   UNL     1     -31.887  -9.154  19.790  0.00  0.00    +0.017 A 
ATOM     16  C   UNL     1     -31.591  -7.783  19.895  0.00  0.00    +0.131 A 
ATOM     17  C   UNL     1     -32.556  -6.836  19.493  0.00  0.00    +0.091 A 
BRANCH  12  19
ATOM     18  C   UNL     1     -34.597  -4.940  18.468  0.00  0.00    +0.277 C 
ATOM     19  O   UNL     1     -34.788  -6.347  18.569  0.00  0.00    -0.495 OA
ENDBRANCH  12  19
BRANCH  16  20
ATOM     20  O   UNL     1     -30.342  -7.400  20.412  0.00  0.00    -0.494 OA
ATOM     21  C   UNL     1     -30.153  -6.430  21.436  0.00  0.00    +0.277 C 
ENDBRANCH  16  20
ENDBRANCH   1  15
BRANCH   2  22
ATOM     22  C   UNL     1     -29.723 -10.053  17.968  0.00  0.00    +0.049 C 
BRANCH  22  23
ATOM     23  C   UNL     1     -30.223 -11.093  16.962  0.00  0.00    +0.125 C 
BRANCH  23  24
ATOM     24  C   UNL     1     -31.207 -10.478  16.018  0.00  0.00    +0.305 C 
ATOM     25  O   UNL     1     -31.577  -9.284  16.181  0.00  0.00    -0.251 OA
BRANCH  24  26
ATOM     26  O   UNL     1     -31.677 -11.212  14.933  0.00  0.00    -0.481 OA
ATOM     27  H   UNL     1     -32.284 -12.011  15.072  0.00  0.00    +0.295 HD
ENDBRANCH  24  26
ENDBRANCH  23  24
ENDBRANCH  22  23
ENDBRANCH   2  22
TORSDOF 8
ENDMDL
MODEL 3
REMARK VINA RESULT:    -4.609      3.619      6.817
REMARK INTER + INTRA:          -6.712
REMARK INTER:                  -5.353
REMARK INTRA:                  -1.359
REMARK UNBOUND:                -0.082
REMARK  Name = 
REMARK  10 active torsions:
REMARK  status: ('A' for Active; 'I' for Inactive)
REMARK    1  A    between atoms: C_1  and  O_2
REMARK    2  A    between atoms: O_2  and  C_3
REMARK    3  A    between atoms: C_6  and  C_7
REMARK    4  A    between atoms: C_8  and  C_9
REMARK    5  A    between atoms: C_8  and  C_14
REMARK    6  A    between atoms: C_9  and  C_10
REMARK    7  A    between atoms: C_10  and  C_11
REMARK    8  A    between atoms: C_11  and  O_13
REMARK    9  A    between atoms: C_23  and  O_25
REMARK   10  A    between atoms: O_25  and  C_26
REMARK                            x       y       z     vdW  Elec       q    Type
REMARK                         _______ _______ _______ _____ _____    ______ ____
ROOT
ATOM      1  C   UNL     1     -31.095 -10.407  17.005  0.00  0.00    +0.017 C 
ATOM      2  C   UNL     1     -31.812 -10.367  18.148  0.00  0.00    -0.014 C 
ENDROOT
BRANCH   2   3
ATOM      3  C   UNL     1     -31.928  -9.095  18.908  0.00  0.00    +0.106 A 
ATOM      4  N   UNL     1     -30.937  -8.621  19.706  0.00  0.00    -0.239 NA
ATOM      5  C   UNL     1     -31.285  -7.444  20.287  0.00  0.00    +0.079 A 
ATOM      6  C   UNL     1     -30.467  -6.722  21.157  0.00  0.00    +0.029 A 
ATOM      7  C   UNL     1     -30.949  -5.514  21.691  0.00  0.00    +0.002 A 
ATOM      8  C   UNL     1     -32.233  -5.046  21.350  0.00  0.00    +0.001 A 
ATOM      9  C   UNL     1     -33.047  -5.780  20.471  0.00  0.00    +0.017 A 
ATOM     10  C   UNL     1     -32.545  -6.973  19.958  0.00  0.00    +0.040 A 
ATOM     11  S   UNL     1     -33.272  -8.052  18.902  0.00  0.00    -0.067 S 
ENDBRANCH   2   3
BRANCH   1  15
ATOM     12  C   UNL     1     -30.669 -13.877  14.520  0.00  0.00    +0.124 A 
ATOM     13  C   UNL     1     -29.927 -13.749  15.697  0.00  0.00    +0.046 A 
ATOM     14  C   UNL     1     -30.069 -12.621  16.505  0.00  0.00    +0.015 A 
ATOM     15  C   UNL     1     -30.969 -11.605  16.154  0.00  0.00    +0.017 A 
ATOM     16  C   UNL     1     -31.711 -11.707  14.964  0.00  0.00    +0.131 A 
ATOM     17  C   UNL     1     -31.560 -12.850  14.152  0.00  0.00    +0.091 A 
BRANCH  12  19
ATOM     18  C   UNL     1     -29.835 -15.062  12.481  0.00  0.00    +0.277 C 
ATOM     19  O   UNL     1     -30.490 -15.033  13.745  0.00  0.00    -0.495 OA
ENDBRANCH  12  19
BRANCH  16  20
ATOM     20  O   UNL     1     -32.590 -10.664  14.625  0.00  0.00    -0.494 OA
ATOM     21  C   UNL     1     -33.994 -10.815  14.453  0.00  0.00    +0.277 C 
ENDBRANCH  16  20
ENDBRANCH   1  15
BRANCH   2  22
ATOM     22  C   UNL     1     -32.616 -11.563  18.622  0.00  0.00    +0.049 C 
BRANCH  22  23
ATOM     23  C   UNL     1     -32.314 -11.869  20.092  0.00  0.00    +0.125 C 
BRANCH  23  24
ATOM     24  C   UNL     1     -31.057 -12.671  20.210  0.00  0.00    +0.305 C 
ATOM     25  O   UNL     1     -30.046 -12.182  20.783  0.00  0.00    -0.251 OA
BRANCH  24  26
ATOM     26  O   UNL     1     -31.020 -13.975  19.726  0.00  0.00    -0.481 OA
ATOM     27  H   UNL     1     -31.853 -14.553  19.729  0.00  0.00    +0.295 HD
ENDBRANCH  24  26
ENDBRANCH  23  24
ENDBRANCH  22  23
ENDBRANCH   2  22
TORSDOF 8
ENDMDL
MODEL 4
REMARK VINA RESULT:    -4.607      3.561      6.683
REMARK INTER + INTRA:          -6.709
REMARK INTER:                  -5.322
REMARK INTRA:                  -1.387
REMARK UNBOUND:                -0.082
REMARK  Name = 
REMARK  10 active torsions:
REMARK  status: ('A' for Active; 'I' for Inactive)
REMARK    1  A    between atoms: C_1  and  O_2
REMARK    2  A    between atoms: O_2  and  C_3
REMARK    3  A    between atoms: C_6  and  C_7
REMARK    4  A    between atoms: C_8  and  C_9
REMARK    5  A    between atoms: C_8  and  C_14
REMARK    6  A    between atoms: C_9  and  C_10
REMARK    7  A    between atoms: C_10  and  C_11
REMARK    8  A    between atoms: C_11  and  O_13
REMARK    9  A    between atoms: C_23  and  O_25
REMARK   10  A    between atoms: O_25  and  C_26
REMARK                            x       y       z     vdW  Elec       q    Type
REMARK                         _______ _______ _______ _____ _____    ______ ____
ROOT
ATOM      1  C   UNL     1     -30.897 -10.377  17.299  0.00  0.00    +0.017 C 
ATOM      2  C   UNL     1     -31.677 -10.326  18.399  0.00  0.00    -0.014 C 
ENDROOT
BRANCH   2   3
ATOM      3  C   UNL     1     -31.860  -9.040  19.121  0.00  0.00    +0.106 A 
ATOM      4  N   UNL     1     -30.879  -8.465  19.862  0.00  0.00    -0.239 NA
ATOM      5  C   UNL     1     -31.293  -7.297  20.417  0.00  0.00    +0.079 A 
ATOM      6  C   UNL     1     -30.500  -6.486  21.231  0.00  0.00    +0.029 A 
ATOM      7  C   UNL     1     -31.052  -5.299  21.743  0.00  0.00    +0.002 A 
ATOM      8  C   UNL     1     -32.379  -4.939  21.437  0.00  0.00    +0.001 A 
ATOM      9  C   UNL     1     -33.168  -5.763  20.617  0.00  0.00    +0.017 A 
ATOM     10  C   UNL     1     -32.596  -6.932  20.123  0.00  0.00    +0.040 A 
ATOM     11  S   UNL     1     -33.278  -8.100  19.134  0.00  0.00    -0.067 S 
ENDBRANCH   2   3
BRANCH   1  15
ATOM     12  C   UNL     1     -30.386 -13.924  14.941  0.00  0.00    +0.124 A 
ATOM     13  C   UNL     1     -31.242 -12.905  14.517  0.00  0.00    +0.046 A 
ATOM     14  C   UNL     1     -31.406 -11.751  15.284  0.00  0.00    +0.015 A 
ATOM     15  C   UNL     1     -30.700 -11.592  16.485  0.00  0.00    +0.017 A 
ATOM     16  C   UNL     1     -29.848 -12.615  16.938  0.00  0.00    +0.131 A 
ATOM     17  C   UNL     1     -29.690 -13.778  16.157  0.00  0.00    +0.091 A 
BRANCH  12  19
ATOM     18  C   UNL     1     -29.866 -15.036  12.762  0.00  0.00    +0.277 C 
ATOM     19  O   UNL     1     -30.256 -15.062  14.131  0.00  0.00    -0.495 OA
ENDBRANCH  12  19
BRANCH  16  20
ATOM     20  O   UNL     1     -29.169 -12.437  18.156  0.00  0.00    -0.494 OA
ATOM     21  C   UNL     1     -27.801 -12.066  18.273  0.00  0.00    +0.277 C 
ENDBRANCH  16  20
ENDBRANCH   1  15
BRANCH   2  22
ATOM     22  C   UNL     1     -32.483 -11.527  18.857  0.00  0.00    +0.049 C 
BRANCH  22  23
ATOM     23  C   UNL     1     -32.265 -11.788  20.350  0.00  0.00    +0.125 C 
BRANCH  23  24
ATOM     24  C   UNL     1     -31.035 -12.612  20.562  0.00  0.00    +0.305 C 
ATOM     25  O   UNL     1     -30.107 -12.185  21.300  0.00  0.00    -0.251 OA
BRANCH  24  26
ATOM     26  O   UNL     1     -30.937 -13.872  19.978  0.00  0.00    -0.481 OA
ATOM     27  H   UNL     1     -31.697 -14.537  20.051  0.00  0.00    +0.295 HD
ENDBRANCH  24  26
ENDBRANCH  23  24
ENDBRANCH  22  23
ENDBRANCH   2  22
TORSDOF 8
ENDMDL
MODEL 5
REMARK VINA RESULT:    -4.596      3.419      6.033
REMARK INTER + INTRA:          -6.693
REMARK INTER:                  -5.482
REMARK INTRA:                  -1.211
REMARK UNBOUND:                -0.082
REMARK  Name = 
REMARK  10 active torsions:
REMARK  status: ('A' for Active; 'I' for Inactive)
REMARK    1  A    between atoms: C_1  and  O_2
REMARK    2  A    between atoms: O_2  and  C_3
REMARK    3  A    between atoms: C_6  and  C_7
REMARK    4  A    between atoms: C_8  and  C_9
REMARK    5  A    between atoms: C_8  and  C_14
REMARK    6  A    between atoms: C_9  and  C_10
REMARK    7  A    between atoms: C_10  and  C_11
REMARK    8  A    between atoms: C_11  and  O_13
REMARK    9  A    between atoms: C_23  and  O_25
REMARK   10  A    between atoms: O_25  and  C_26
REMARK                            x       y       z     vdW  Elec       q    Type
REMARK                         _______ _______ _______ _____ _____    ______ ____
ROOT
ATOM      1  C   UNL     1     -33.242 -10.488  17.216  0.00  0.00    +0.017 C 
ATOM      2  C   UNL     1     -31.996 -10.541  16.699  0.00  0.00    -0.014 C 
ENDROOT
BRANCH   2   3
ATOM      3  C   UNL     1     -31.673 -11.532  15.640  0.00  0.00    +0.106 A 
ATOM      4  N   UNL     1     -30.716 -12.484  15.790  0.00  0.00    -0.239 NA
ATOM      5  C   UNL     1     -30.614 -13.267  14.685  0.00  0.00    +0.079 A 
ATOM      6  C   UNL     1     -29.716 -14.326  14.550  0.00  0.00    +0.029 A 
ATOM      7  C   UNL     1     -29.713 -15.059  13.350  0.00  0.00    +0.002 A 
ATOM      8  C   UNL     1     -30.600 -14.725  12.307  0.00  0.00    +0.001 A 
ATOM      9  C   UNL     1     -31.500 -13.657  12.455  0.00  0.00    +0.017 A 
ATOM     10  C   UNL     1     -31.482 -12.949  13.654  0.00  0.00    +0.040 A 
ATOM     11  S   UNL     1     -32.424 -11.642  14.117  0.00  0.00    -0.067 S 
ENDBRANCH   2   3
BRANCH   1  15
ATOM     12  C   UNL     1     -34.447  -7.586  20.135  0.00  0.00    +0.124 A 
ATOM     13  C   UNL     1     -34.573  -7.316  18.770  0.00  0.00    +0.046 A 
ATOM     14  C   UNL     1     -34.182  -8.262  17.822  0.00  0.00    +0.015 A 
ATOM     15  C   UNL     1     -33.672  -9.503  18.227  0.00  0.00    +0.017 A 
ATOM     16  C   UNL     1     -33.521  -9.786  19.596  0.00  0.00    +0.131 A 
ATOM     17  C   UNL     1     -33.917  -8.824  20.548  0.00  0.00    +0.091 A 
BRANCH  12  19
ATOM     18  C   UNL     1     -34.780  -5.200  20.808  0.00  0.00    +0.277 C 
ATOM     19  O   UNL     1     -34.858  -6.601  21.047  0.00  0.00    -0.495 OA
ENDBRANCH  12  19
BRANCH  16  20
ATOM     20  O   UNL     1     -32.986 -11.030  19.973  0.00  0.00    -0.494 OA
ATOM     21  C   UNL     1     -32.510 -11.344  21.277  0.00  0.00    +0.277 C 
ENDBRANCH  16  20
ENDBRANCH   1  15
BRANCH   2  22
ATOM     22  C   UNL     1     -30.935  -9.526  17.080  0.00  0.00    +0.049 C 
BRANCH  22  23
ATOM     23  C   UNL     1     -29.696 -10.225  17.646  0.00  0.00    +0.125 C 
BRANCH  23  24
ATOM     24  C   UNL     1     -29.624 -10.041  19.129  0.00  0.00    +0.305 C 
ATOM     25  O   UNL     1     -29.310 -11.010  19.872  0.00  0.00    -0.251 OA
BRANCH  24  26
ATOM     26  O   UNL     1     -29.861  -8.787  19.683  0.00  0.00    -0.481 OA
ATOM     27  H   UNL     1     -30.019  -7.980  19.091  0.00  0.00    +0.295 HD
ENDBRANCH  24  26
ENDBRANCH  23  24
ENDBRANCH  22  23
ENDBRANCH   2  22
TORSDOF 8
ENDMDL
MODEL 6
REMARK VINA RESULT:    -4.330      3.294      6.430
REMARK INTER + INTRA:          -6.310
REMARK INTER:                  -4.812
REMARK INTRA:                  -1.498
REMARK UNBOUND:                -0.082
REMARK  Name = 
REMARK  10 active torsions:
REMARK  status: ('A' for Active; 'I' for Inactive)
REMARK    1  A    between atoms: C_1  and  O_2
REMARK    2  A    between atoms: O_2  and  C_3
REMARK    3  A    between atoms: C_6  and  C_7
REMARK    4  A    between atoms: C_8  and  C_9
REMARK    5  A    between atoms: C_8  and  C_14
REMARK    6  A    between atoms: C_9  and  C_10
REMARK    7  A    between atoms: C_10  and  C_11
REMARK    8  A    between atoms: C_11  and  O_13
REMARK    9  A    between atoms: C_23  and  O_25
REMARK   10  A    between atoms: O_25  and  C_26
REMARK                            x       y       z     vdW  Elec       q    Type
REMARK                         _______ _______ _______ _____ _____    ______ ____
ROOT
ATOM      1  C   UNL     1     -32.502 -11.219  16.471  0.00  0.00    +0.017 C 
ATOM      2  C   UNL     1     -31.797 -10.302  17.167  0.00  0.00    -0.014 C 
ENDROOT
BRANCH   2   3
ATOM      3  C   UNL     1     -32.444  -9.552  18.274  0.00  0.00    +0.106 A 
ATOM      4  N   UNL     1     -32.466  -8.195  18.330  0.00  0.00    -0.239 NA
ATOM      5  C   UNL     1     -33.117  -7.753  19.437  0.00  0.00    +0.079 A 
ATOM      6  C   UNL     1     -33.297  -6.407  19.761  0.00  0.00    +0.029 A 
ATOM      7  C   UNL     1     -33.992  -6.084  20.939  0.00  0.00    +0.002 A 
ATOM      8  C   UNL     1     -34.495  -7.102  21.773  0.00  0.00    +0.001 A 
ATOM      9  C   UNL     1     -34.309  -8.453  21.437  0.00  0.00    +0.017 A 
ATOM     10  C   UNL     1     -33.617  -8.744  20.264  0.00  0.00    +0.040 A 
ATOM     11  S   UNL     1     -33.243 -10.241  19.609  0.00  0.00    -0.067 S 
ENDBRANCH   2   3
BRANCH   1  15
ATOM     12  C   UNL     1     -30.904 -13.654  13.323  0.00  0.00    +0.124 A 
ATOM     13  C   UNL     1     -31.701 -12.545  13.029  0.00  0.00    +0.046 A 
ATOM     14  C   UNL     1     -32.218 -11.753  14.054  0.00  0.00    +0.015 A 
ATOM     15  C   UNL     1     -31.932 -12.051  15.394  0.00  0.00    +0.017 A 
ATOM     16  C   UNL     1     -31.147 -13.174  15.710  0.00  0.00    +0.131 A 
ATOM     17  C   UNL     1     -30.630 -13.970  14.668  0.00  0.00    +0.091 A 
BRANCH  12  19
ATOM     18  C   UNL     1     -29.138 -15.062  12.248  0.00  0.00    +0.277 C 
ATOM     19  O   UNL     1     -30.407 -14.417  12.254  0.00  0.00    -0.495 OA
ENDBRANCH  12  19
BRANCH  16  20
ATOM     20  O   UNL     1     -30.894 -13.461  17.062  0.00  0.00    -0.494 OA
ATOM     21  C   UNL     1     -31.231 -14.685  17.706  0.00  0.00    +0.277 C 
ENDBRANCH  16  20
ENDBRANCH   1  15
BRANCH   2  22
ATOM     22  C   UNL     1     -30.312 -10.098  16.933  0.00  0.00    +0.049 C 
BRANCH  22  23
ATOM     23  C   UNL     1     -29.540 -10.189  18.252  0.00  0.00    +0.125 C 
BRANCH  23  24
ATOM     24  C   UNL     1     -28.392 -11.140  18.123  0.00  0.00    +0.305 C 
ATOM     25  O   UNL     1     -27.208 -10.718  18.212  0.00  0.00    -0.251 OA
BRANCH  24  26
ATOM     26  O   UNL     1     -28.637 -12.498  17.947  0.00  0.00    -0.481 OA
ATOM     27  H   UNL     1     -28.238 -13.000  17.162  0.00  0.00    +0.295 HD
ENDBRANCH  24  26
ENDBRANCH  23  24
ENDBRANCH  22  23
ENDBRANCH   2  22
TORSDOF 8
ENDMDL
