MODEL 1
REMARK VINA RESULT:    -5.258      0.000      0.000
REMARK INTER + INTRA:          -8.081
REMARK INTER:                  -6.949
REMARK INTRA:                  -1.132
REMARK UNBOUND:                -1.132
REMARK  Name = 
REMARK  7 active torsions:
REMARK  status: ('A' for Active; 'I' for Inactive)
REMARK    1  A    between atoms: C_1  and  C_2
REMARK    2  A    between atoms: C_7  and  C_8
REMARK    3  A    between atoms: C_9  and  C_10
REMARK    4  A    between atoms: C_9  and  C_15
REMARK    5  A    between atoms: C_10  and  C_11
REMARK    6  A    between atoms: C_11  and  C_12
REMARK    7  A    between atoms: C_12  and  O_14
REMARK                            x       y       z     vdW  Elec       q    Type
REMARK                         _______ _______ _______ _____ _____    ______ ____
ROOT
ATOM      1  C   UNL     1     -31.637 -13.024  15.596  0.00  0.00    +0.014 C 
ATOM      2  C   UNL     1     -30.941 -12.088  16.275  0.00  0.00    -0.014 C 
ENDROOT
BRANCH   2   3
ATOM      3  C   UNL     1     -30.240 -12.448  17.534  0.00  0.00    +0.106 A 
ATOM      4  N   UNL     1     -28.888 -12.409  17.662  0.00  0.00    -0.239 NA
ATOM      5  C   UNL     1     -28.493 -12.782  18.906  0.00  0.00    +0.079 A 
ATOM      6  C   UNL     1     -27.164 -12.837  19.327  0.00  0.00    +0.029 A 
ATOM      7  C   UNL     1     -26.890 -13.240  20.646  0.00  0.00    +0.002 A 
ATOM      8  C   UNL     1     -27.942 -13.581  21.521  0.00  0.00    +0.001 A 
ATOM      9  C   UNL     1     -29.275 -13.520  21.085  0.00  0.00    +0.017 A 
ATOM     10  C   UNL     1     -29.518 -13.118  19.775  0.00  0.00    +0.040 A 
ATOM     11  S   UNL     1     -30.983 -12.951  18.980  0.00  0.00    -0.067 S 
ENDBRANCH   2   3
BRANCH   1  18
ATOM     12  C   UNL     1     -30.634 -13.985  12.981  0.00  0.00    +0.044 C 
ATOM     13  C   UNL     1     -31.912 -13.198  13.097  0.00  0.00    -0.043 A 
ATOM     14  C   UNL     1     -32.645 -12.888  11.938  0.00  0.00    +0.004 A 
ATOM     15  C   UNL     1     -33.834 -12.158  12.027  0.00  0.00    +0.000 A 
ATOM     16  C   UNL     1     -34.303 -11.730  13.270  0.00  0.00    +0.001 A 
ATOM     17  C   UNL     1     -33.581 -12.024  14.429  0.00  0.00    +0.008 A 
ATOM     18  C   UNL     1     -32.378 -12.741  14.351  0.00  0.00    -0.022 A 
ENDBRANCH   1  18
BRANCH   2  19
ATOM     19  C   UNL     1     -30.909 -10.641  15.824  0.00  0.00    +0.049 C 
BRANCH  19  20
ATOM     20  C   UNL     1     -31.226  -9.702  16.992  0.00  0.00    +0.125 C 
BRANCH  20  21
ATOM     21  C   UNL     1     -32.692  -9.414  17.048  0.00  0.00    +0.305 C 
ATOM     22  O   UNL     1     -33.458 -10.162  17.712  0.00  0.00    -0.251 OA
BRANCH  21  23
ATOM     23  O   UNL     1     -33.202  -8.292  16.403  0.00  0.00    -0.481 OA
ATOM     24  H   UNL     1     -33.690  -7.571  16.922  0.00  0.00    +0.295 HD
ENDBRANCH  21  23
ENDBRANCH  20  21
ENDBRANCH  19  20
ENDBRANCH   2  19
TORSDOF 6
ENDMDL
MODEL 2
REMARK VINA RESULT:    -5.000      0.496      1.510
REMARK INTER + INTRA:          -7.740
REMARK INTER:                  -6.740
REMARK INTRA:                  -1.000
REMARK UNBOUND:                -1.132
REMARK  Name = 
REMARK  7 active torsions:
REMARK  status: ('A' for Active; 'I' for Inactive)
REMARK    1  A    between atoms: C_1  and  C_2
REMARK    2  A    between atoms: C_7  and  C_8
REMARK    3  A    between atoms: C_9  and  C_10
REMARK    4  A    between atoms: C_9  and  C_15
REMARK    5  A    between atoms: C_10  and  C_11
REMARK    6  A    between atoms: C_11  and  C_12
REMARK    7  A    between atoms: C_12  and  O_14
REMARK                            x       y       z     vdW  Elec       q    Type
REMARK                         _______ _______ _______ _____ _____    ______ ____
ROOT
ATOM      1  C   UNL     1     -31.634 -12.997  15.613  0.00  0.00    +0.014 C 
ATOM      2  C   UNL     1     -30.904 -12.079  16.282  0.00  0.00    -0.014 C 
ENDROOT
BRANCH   2   3
ATOM      3  C   UNL     1     -30.216 -12.449  17.545  0.00  0.00    +0.106 A 
ATOM      4  N   UNL     1     -28.863 -12.453  17.673  0.00  0.00    -0.239 NA
ATOM      5  C   UNL     1     -28.481 -12.827  18.921  0.00  0.00    +0.079 A 
ATOM      6  C   UNL     1     -27.155 -12.921  19.344  0.00  0.00    +0.029 A 
ATOM      7  C   UNL     1     -26.895 -13.321  20.666  0.00  0.00    +0.002 A 
ATOM      8  C   UNL     1     -27.957 -13.619  21.544  0.00  0.00    +0.001 A 
ATOM      9  C   UNL     1     -29.288 -13.519  21.107  0.00  0.00    +0.017 A 
ATOM     10  C   UNL     1     -29.517 -13.122  19.792  0.00  0.00    +0.040 A 
ATOM     11  S   UNL     1     -30.975 -12.914  18.995  0.00  0.00    -0.067 S 
ENDBRANCH   2   3
BRANCH   1  18
ATOM     12  C   UNL     1     -34.349 -11.818  15.687  0.00  0.00    +0.044 C 
ATOM     13  C   UNL     1     -33.660 -12.137  14.387  0.00  0.00    -0.043 A 
ATOM     14  C   UNL     1     -34.322 -11.891  13.171  0.00  0.00    +0.004 A 
ATOM     15  C   UNL     1     -33.697 -12.180  11.954  0.00  0.00    +0.000 A 
ATOM     16  C   UNL     1     -32.409 -12.716  11.938  0.00  0.00    +0.001 A 
ATOM     17  C   UNL     1     -31.742 -12.973  13.138  0.00  0.00    +0.008 A 
ATOM     18  C   UNL     1     -32.365 -12.702  14.365  0.00  0.00    -0.022 A 
ENDBRANCH   1  18
BRANCH   2  19
ATOM     19  C   UNL     1     -30.822 -10.639  15.815  0.00  0.00    +0.049 C 
BRANCH  19  20
ATOM     20  C   UNL     1     -30.779  -9.683  17.011  0.00  0.00    +0.125 C 
BRANCH  20  21
ATOM     21  C   UNL     1     -32.154  -9.197  17.342  0.00  0.00    +0.305 C 
ATOM     22  O   UNL     1     -32.573  -9.248  18.529  0.00  0.00    -0.251 OA
BRANCH  21  23
ATOM     23  O   UNL     1     -32.952  -8.647  16.344  0.00  0.00    -0.481 OA
ATOM     24  H   UNL     1     -32.964  -7.646  16.181  0.00  0.00    +0.295 HD
ENDBRANCH  21  23
ENDBRANCH  20  21
ENDBRANCH  19  20
ENDBRANCH   2  19
TORSDOF 6
ENDMDL
MODEL 3
REMARK VINA RESULT:    -4.978      3.309      4.945
REMARK INTER + INTRA:          -7.710
REMARK INTER:                  -6.705
REMARK INTRA:                  -1.005
REMARK UNBOUND:                -1.132
REMARK  Name = 
REMARK  7 active torsions:
REMARK  status: ('A' for Active; 'I' for Inactive)
REMARK    1  A    between atoms: C_1  and  C_2
REMARK    2  A    between atoms: C_7  and  C_8
REMARK    3  A    between atoms: C_9  and  C_10
REMARK    4  A    between atoms: C_9  and  C_15
REMARK    5  A    between atoms: C_10  and  C_11
REMARK    6  A    between atoms: C_11  and  C_12
REMARK    7  A    between atoms: C_12  and  O_14
REMARK                            x       y       z     vdW  Elec       q    Type
REMARK                         _______ _______ _______ _____ _____    ______ ____
ROOT
ATOM      1  C   UNL     1     -31.532 -12.911  16.682  0.00  0.00    +0.014 C 
ATOM      2  C   UNL     1     -31.031 -11.904  17.428  0.00  0.00    -0.014 C 
ENDROOT
BRANCH   2   3
ATOM      3  C   UNL     1     -31.830 -11.331  18.542  0.00  0.00    +0.106 A 
ATOM      4  N   UNL     1     -32.362 -10.082  18.501  0.00  0.00    -0.239 NA
ATOM      5  C   UNL     1     -33.045  -9.794  19.638  0.00  0.00    +0.079 A 
ATOM      6  C   UNL     1     -33.699  -8.585  19.879  0.00  0.00    +0.029 A 
ATOM      7  C   UNL     1     -34.372  -8.414  21.102  0.00  0.00    +0.002 A 
ATOM      8  C   UNL     1     -34.384  -9.446  22.061  0.00  0.00    +0.001 A 
ATOM      9  C   UNL     1     -33.722 -10.658  21.807  0.00  0.00    +0.017 A 
ATOM     10  C   UNL     1     -33.063 -10.801  20.589  0.00  0.00    +0.040 A 
ATOM     11  S   UNL     1     -32.199 -12.113  20.008  0.00  0.00    -0.067 S 
ENDBRANCH   2   3
BRANCH   1  18
ATOM     12  C   UNL     1     -32.373 -12.377  13.894  0.00  0.00    +0.044 C 
ATOM     13  C   UNL     1     -31.202 -13.267  14.209  0.00  0.00    -0.043 A 
ATOM     14  C   UNL     1     -30.493 -13.883  13.162  0.00  0.00    +0.004 A 
ATOM     15  C   UNL     1     -29.403 -14.712  13.437  0.00  0.00    +0.000 A 
ATOM     16  C   UNL     1     -29.007 -14.937  14.756  0.00  0.00    +0.001 A 
ATOM     17  C   UNL     1     -29.706 -14.339  15.807  0.00  0.00    +0.008 A 
ATOM     18  C   UNL     1     -30.812 -13.517  15.546  0.00  0.00    -0.022 A 
ENDBRANCH   1  18
BRANCH   2  19
ATOM     19  C   UNL     1     -29.686 -11.278  17.115  0.00  0.00    +0.049 C 
BRANCH  19  20
ATOM     20  C   UNL     1     -28.905 -10.998  18.402  0.00  0.00    +0.125 C 
BRANCH  20  21
ATOM     21  C   UNL     1     -27.609 -11.744  18.400  0.00  0.00    +0.305 C 
ATOM     22  O   UNL     1     -27.604 -13.002  18.341  0.00  0.00    -0.251 OA
BRANCH  21  23
ATOM     23  O   UNL     1     -26.407 -11.042  18.417  0.00  0.00    -0.481 OA
ATOM     24  H   UNL     1     -25.648 -11.326  19.025  0.00  0.00    +0.295 HD
ENDBRANCH  21  23
ENDBRANCH  20  21
ENDBRANCH  19  20
ENDBRANCH   2  19
TORSDOF 6
ENDMDL
MODEL 4
REMARK VINA RESULT:    -4.767      3.285      4.751
REMARK INTER + INTRA:          -7.432
REMARK INTER:                  -6.393
REMARK INTRA:                  -1.038
REMARK UNBOUND:                -1.132
REMARK  Name = 
REMARK  7 active torsions:
REMARK  status: ('A' for Active; 'I' for Inactive)
REMARK    1  A    between atoms: C_1  and  C_2
REMARK    2  A    between atoms: C_7  and  C_8
REMARK    3  A    between atoms: C_9  and  C_10
REMARK    4  A    between atoms: C_9  and  C_15
REMARK    5  A    between atoms: C_10  and  C_11
REMARK    6  A    between atoms: C_11  and  C_12
REMARK    7  A    between atoms: C_12  and  O_14
REMARK                            x       y       z     vdW  Elec       q    Type
REMARK                         _______ _______ _______ _____ _____    ______ ____
ROOT
ATOM      1  C   UNL     1     -32.439 -10.816  15.335  0.00  0.00    +0.014 C 
ATOM      2  C   UNL     1     -32.575 -11.248  16.607  0.00  0.00    -0.014 C 
ENDROOT
BRANCH   2   3
ATOM      3  C   UNL     1     -32.338 -10.318  17.740  0.00  0.00    +0.106 A 
ATOM      4  N   UNL     1     -33.302  -9.992  18.640  0.00  0.00    -0.239 NA
ATOM      5  C   UNL     1     -32.838  -9.126  19.577  0.00  0.00    +0.079 A 
ATOM      6  C   UNL     1     -33.604  -8.619  20.628  0.00  0.00    +0.029 A 
ATOM      7  C   UNL     1     -33.000  -7.727  21.532  0.00  0.00    +0.002 A 
ATOM      8  C   UNL     1     -31.649  -7.357  21.376  0.00  0.00    +0.001 A 
ATOM      9  C   UNL     1     -30.889  -7.876  20.315  0.00  0.00    +0.017 A 
ATOM     10  C   UNL     1     -31.512  -8.756  19.434  0.00  0.00    +0.040 A 
ATOM     11  S   UNL     1     -30.872  -9.529  18.092  0.00  0.00    -0.067 S 
ENDBRANCH   2   3
BRANCH   1  18
ATOM     12  C   UNL     1     -34.894 -10.614  13.693  0.00  0.00    +0.044 C 
ATOM     13  C   UNL     1     -33.800 -11.595  13.363  0.00  0.00    -0.043 A 
ATOM     14  C   UNL     1     -33.947 -12.455  12.260  0.00  0.00    +0.004 A 
ATOM     15  C   UNL     1     -32.941 -13.371  11.939  0.00  0.00    +0.000 A 
ATOM     16  C   UNL     1     -31.781 -13.439  12.712  0.00  0.00    +0.001 A 
ATOM     17  C   UNL     1     -31.625 -12.596  13.815  0.00  0.00    +0.008 A 
ATOM     18  C   UNL     1     -32.634 -11.683  14.157  0.00  0.00    -0.022 A 
ENDBRANCH   1  18
BRANCH   2  19
ATOM     19  C   UNL     1     -32.897 -12.696  16.923  0.00  0.00    +0.049 C 
BRANCH  19  20
ATOM     20  C   UNL     1     -31.952 -13.240  17.997  0.00  0.00    +0.125 C 
BRANCH  20  21
ATOM     21  C   UNL     1     -31.083 -14.318  17.432  0.00  0.00    +0.305 C 
ATOM     22  O   UNL     1     -31.308 -14.771  16.278  0.00  0.00    -0.251 OA
BRANCH  21  23
ATOM     23  O   UNL     1     -29.998 -14.788  18.166  0.00  0.00    -0.481 OA
ATOM     24  H   UNL     1     -30.101 -15.037  19.143  0.00  0.00    +0.295 HD
ENDBRANCH  21  23
ENDBRANCH  20  21
ENDBRANCH  19  20
ENDBRANCH   2  19
TORSDOF 6
ENDMDL
MODEL 5
REMARK VINA RESULT:    -4.630      2.416      3.203
REMARK INTER + INTRA:          -7.250
REMARK INTER:                  -6.129
REMARK INTRA:                  -1.121
REMARK UNBOUND:                -1.132
REMARK  Name = 
REMARK  7 active torsions:
REMARK  status: ('A' for Active; 'I' for Inactive)
REMARK    1  A    between atoms: C_1  and  C_2
REMARK    2  A    between atoms: C_7  and  C_8
REMARK    3  A    between atoms: C_9  and  C_10
REMARK    4  A    between atoms: C_9  and  C_15
REMARK    5  A    between atoms: C_10  and  C_11
REMARK    6  A    between atoms: C_11  and  C_12
REMARK    7  A    between atoms: C_12  and  O_14
REMARK                            x       y       z     vdW  Elec       q    Type
REMARK                         _______ _______ _______ _____ _____    ______ ____
ROOT
ATOM      1  C   UNL     1     -30.815 -12.213  17.646  0.00  0.00    +0.014 C 
ATOM      2  C   UNL     1     -30.541 -11.895  18.929  0.00  0.00    -0.014 C 
ENDROOT
BRANCH   2   3
ATOM      3  C   UNL     1     -29.412 -12.551  19.636  0.00  0.00    +0.106 A 
ATOM      4  N   UNL     1     -28.125 -12.462  19.211  0.00  0.00    -0.239 NA
ATOM      5  C   UNL     1     -27.282 -13.146  20.025  0.00  0.00    +0.079 A 
ATOM      6  C   UNL     1     -25.901 -13.232  19.837  0.00  0.00    +0.029 A 
ATOM      7  C   UNL     1     -25.140 -13.975  20.757  0.00  0.00    +0.002 A 
ATOM      8  C   UNL     1     -25.764 -14.618  21.846  0.00  0.00    +0.001 A 
ATOM      9  C   UNL     1     -27.153 -14.523  22.024  0.00  0.00    +0.017 A 
ATOM     10  C   UNL     1     -27.883 -13.782  21.099  0.00  0.00    +0.040 A 
ATOM     11  S   UNL     1     -29.532 -13.491  21.049  0.00  0.00    -0.067 S 
ENDBRANCH   2   3
BRANCH   1  18
ATOM     12  C   UNL     1     -30.467  -9.672  16.166  0.00  0.00    +0.044 C 
ATOM     13  C   UNL     1     -31.778 -10.413  16.169  0.00  0.00    -0.043 A 
ATOM     14  C   UNL     1     -32.877  -9.884  15.470  0.00  0.00    +0.004 A 
ATOM     15  C   UNL     1     -34.101 -10.558  15.462  0.00  0.00    +0.000 A 
ATOM     16  C   UNL     1     -34.241 -11.766  16.147  0.00  0.00    +0.001 A 
ATOM     17  C   UNL     1     -33.160 -12.300  16.852  0.00  0.00    +0.008 A 
ATOM     18  C   UNL     1     -31.931 -11.624  16.882  0.00  0.00    -0.022 A 
ENDBRANCH   1  18
BRANCH   2  19
ATOM     19  C   UNL     1     -31.409 -10.925  19.707  0.00  0.00    +0.049 C 
BRANCH  19  20
ATOM     20  C   UNL     1     -30.545  -9.947  20.508  0.00  0.00    +0.125 C 
BRANCH  20  21
ATOM     21  C   UNL     1     -30.720  -8.553  19.994  0.00  0.00    +0.305 C 
ATOM     22  O   UNL     1     -31.615  -8.301  19.144  0.00  0.00    -0.251 OA
BRANCH  21  23
ATOM     23  O   UNL     1     -29.921  -7.528  20.491  0.00  0.00    -0.481 OA
ATOM     24  H   UNL     1     -30.327  -6.762  21.016  0.00  0.00    +0.295 HD
ENDBRANCH  21  23
ENDBRANCH  20  21
ENDBRANCH  19  20
ENDBRANCH   2  19
TORSDOF 6
ENDMDL
MODEL 6
REMARK VINA RESULT:    -4.568      1.922      7.011
REMARK INTER + INTRA:          -7.169
REMARK INTER:                  -6.088
REMARK INTRA:                  -1.081
REMARK UNBOUND:                -1.132
REMARK  Name = 
REMARK  7 active torsions:
REMARK  status: ('A' for Active; 'I' for Inactive)
REMARK    1  A    between atoms: C_1  and  C_2
REMARK    2  A    between atoms: C_7  and  C_8
REMARK    3  A    between atoms: C_9  and  C_10
REMARK    4  A    between atoms: C_9  and  C_15
REMARK    5  A    between atoms: C_10  and  C_11
REMARK    6  A    between atoms: C_11  and  C_12
REMARK    7  A    between atoms: C_12  and  O_14
REMARK                            x       y       z     vdW  Elec       q    Type
REMARK                         _______ _______ _______ _____ _____    ______ ____
ROOT
ATOM      1  C   UNL     1     -30.097 -13.255  18.031  0.00  0.00    +0.014 C 
ATOM      2  C   UNL     1     -30.259 -12.221  17.179  0.00  0.00    -0.014 C 
ENDROOT
BRANCH   2   3
ATOM      3  C   UNL     1     -31.030 -12.402  15.922  0.00  0.00    +0.106 A 
ATOM      4  N   UNL     1     -32.227 -11.799  15.699  0.00  0.00    -0.239 NA
ATOM      5  C   UNL     1     -32.729 -12.124  14.480  0.00  0.00    +0.079 A 
ATOM      6  C   UNL     1     -33.942 -11.652  13.977  0.00  0.00    +0.029 A 
ATOM      7  C   UNL     1     -34.347 -12.066  12.696  0.00  0.00    +0.002 A 
ATOM      8  C   UNL     1     -33.540 -12.939  11.939  0.00  0.00    +0.001 A 
ATOM      9  C   UNL     1     -32.321 -13.406  12.456  0.00  0.00    +0.017 A 
ATOM     10  C   UNL     1     -31.944 -12.981  13.727  0.00  0.00    +0.040 A 
ATOM     11  S   UNL     1     -30.564 -13.362  14.597  0.00  0.00    -0.067 S 
ENDBRANCH   2   3
BRANCH   1  18
ATOM     12  C   UNL     1     -31.408 -12.442  20.558  0.00  0.00    +0.044 C 
ATOM     13  C   UNL     1     -29.942 -12.778  20.500  0.00  0.00    -0.043 A 
ATOM     14  C   UNL     1     -29.161 -12.687  21.666  0.00  0.00    +0.004 A 
ATOM     15  C   UNL     1     -27.798 -12.995  21.631  0.00  0.00    +0.000 A 
ATOM     16  C   UNL     1     -27.201 -13.397  20.435  0.00  0.00    +0.001 A 
ATOM     17  C   UNL     1     -27.962 -13.484  19.267  0.00  0.00    +0.008 A 
ATOM     18  C   UNL     1     -29.327 -13.161  19.286  0.00  0.00    -0.022 A 
ENDBRANCH   1  18
BRANCH   2  19
ATOM     19  C   UNL     1     -29.608 -10.875  17.433  0.00  0.00    +0.049 C 
BRANCH  19  20
ATOM     20  C   UNL     1     -30.667  -9.779  17.579  0.00  0.00    +0.125 C 
BRANCH  20  21
ATOM     21  C   UNL     1     -30.627  -9.193  18.955  0.00  0.00    +0.305 C 
ATOM     22  O   UNL     1     -31.635  -8.595  19.416  0.00  0.00    -0.251 OA
BRANCH  21  23
ATOM     23  O   UNL     1     -29.489  -9.351  19.740  0.00  0.00    -0.481 OA
ATOM     24  H   UNL     1     -28.900  -8.557  19.967  0.00  0.00    +0.295 HD
ENDBRANCH  21  23
ENDBRANCH  20  21
ENDBRANCH  19  20
ENDBRANCH   2  19
TORSDOF 6
ENDMDL
MODEL 7
REMARK VINA RESULT:    -4.552      3.382      5.363
REMARK INTER + INTRA:          -7.147
REMARK INTER:                  -5.925
REMARK INTRA:                  -1.222
REMARK UNBOUND:                -1.132
REMARK  Name = 
REMARK  7 active torsions:
REMARK  status: ('A' for Active; 'I' for Inactive)
REMARK    1  A    between atoms: C_1  and  C_2
REMARK    2  A    between atoms: C_7  and  C_8
REMARK    3  A    between atoms: C_9  and  C_10
REMARK    4  A    between atoms: C_9  and  C_15
REMARK    5  A    between atoms: C_10  and  C_11
REMARK    6  A    between atoms: C_11  and  C_12
REMARK    7  A    between atoms: C_12  and  O_14
REMARK                            x       y       z     vdW  Elec       q    Type
REMARK                         _______ _______ _______ _____ _____    ______ ____
ROOT
ATOM      1  C   UNL     1     -30.886 -10.971  16.820  0.00  0.00    +0.014 C 
ATOM      2  C   UNL     1     -31.743 -10.841  17.854  0.00  0.00    -0.014 C 
ENDROOT
BRANCH   2   3
ATOM      3  C   UNL     1     -31.890  -9.533  18.542  0.00  0.00    +0.106 A 
ATOM      4  N   UNL     1     -30.982  -9.066  19.438  0.00  0.00    -0.239 NA
ATOM      5  C   UNL     1     -31.341  -7.852  19.926  0.00  0.00    +0.079 A 
ATOM      6  C   UNL     1     -30.601  -7.128  20.862  0.00  0.00    +0.029 A 
ATOM      7  C   UNL     1     -31.086  -5.879  21.286  0.00  0.00    +0.002 A 
ATOM      8  C   UNL     1     -32.297  -5.371  20.772  0.00  0.00    +0.001 A 
ATOM      9  C   UNL     1     -33.033  -6.109  19.831  0.00  0.00    +0.017 A 
ATOM     10  C   UNL     1     -32.529  -7.343  19.429  0.00  0.00    +0.040 A 
ATOM     11  S   UNL     1     -33.174  -8.436  18.334  0.00  0.00    -0.067 S 
ENDBRANCH   2   3
BRANCH   1  18
ATOM     12  C   UNL     1     -32.289 -11.533  14.274  0.00  0.00    +0.044 C 
ATOM     13  C   UNL     1     -31.328 -12.520  14.882  0.00  0.00    -0.043 A 
ATOM     14  C   UNL     1     -31.099 -13.751  14.243  0.00  0.00    +0.004 A 
ATOM     15  C   UNL     1     -30.210 -14.679  14.793  0.00  0.00    +0.000 A 
ATOM     16  C   UNL     1     -29.541 -14.389  15.983  0.00  0.00    +0.001 A 
ATOM     17  C   UNL     1     -29.765 -13.173  16.633  0.00  0.00    +0.008 A 
ATOM     18  C   UNL     1     -30.667 -12.241  16.100  0.00  0.00    -0.022 A 
ENDBRANCH   1  18
BRANCH   2  19
ATOM     19  C   UNL     1     -32.523 -12.026  18.391  0.00  0.00    +0.049 C 
BRANCH  19  20
ATOM     20  C   UNL     1     -32.374 -12.128  19.911  0.00  0.00    +0.125 C 
BRANCH  20  21
ATOM     21  C   UNL     1     -31.071 -12.769  20.267  0.00  0.00    +0.305 C 
ATOM     22  O   UNL     1     -30.211 -12.128  20.927  0.00  0.00    -0.251 OA
BRANCH  21  23
ATOM     23  O   UNL     1     -30.830 -14.092  19.908  0.00  0.00    -0.481 OA
ATOM     24  H   UNL     1     -31.293 -14.854  20.390  0.00  0.00    +0.295 HD
ENDBRANCH  21  23
ENDBRANCH  20  21
ENDBRANCH  19  20
ENDBRANCH   2  19
TORSDOF 6
ENDMDL
MODEL 8
REMARK VINA RESULT:    -4.456      2.676      4.087
REMARK INTER + INTRA:          -7.020
REMARK INTER:                  -5.941
REMARK INTRA:                  -1.079
REMARK UNBOUND:                -1.132
REMARK  Name = 
REMARK  7 active torsions:
REMARK  status: ('A' for Active; 'I' for Inactive)
REMARK    1  A    between atoms: C_1  and  C_2
REMARK    2  A    between atoms: C_7  and  C_8
REMARK    3  A    between atoms: C_9  and  C_10
REMARK    4  A    between atoms: C_9  and  C_15
REMARK    5  A    between atoms: C_10  and  C_11
REMARK    6  A    between atoms: C_11  and  C_12
REMARK    7  A    between atoms: C_12  and  O_14
REMARK                            x       y       z     vdW  Elec       q    Type
REMARK                         _______ _______ _______ _____ _____    ______ ____
ROOT
ATOM      1  C   UNL     1     -30.740 -11.054  17.984  0.00  0.00    +0.014 C 
ATOM      2  C   UNL     1     -30.607 -12.374  18.237  0.00  0.00    -0.014 C 
ENDROOT
BRANCH   2   3
ATOM      3  C   UNL     1     -29.544 -12.855  19.156  0.00  0.00    +0.106 A 
ATOM      4  N   UNL     1     -28.222 -12.791  18.851  0.00  0.00    -0.239 NA
ATOM      5  C   UNL     1     -27.454 -13.292  19.852  0.00  0.00    +0.079 A 
ATOM      6  C   UNL     1     -26.060 -13.356  19.819  0.00  0.00    +0.029 A 
ATOM      7  C   UNL     1     -25.384 -13.900  20.925  0.00  0.00    +0.002 A 
ATOM      8  C   UNL     1     -26.104 -14.371  22.042  0.00  0.00    +0.001 A 
ATOM      9  C   UNL     1     -27.506 -14.301  22.062  0.00  0.00    +0.017 A 
ATOM     10  C   UNL     1     -28.150 -13.757  20.954  0.00  0.00    +0.040 A 
ATOM     11  S   UNL     1     -29.791 -13.544  20.692  0.00  0.00    -0.067 S 
ENDBRANCH   2   3
BRANCH   1  18
ATOM     12  C   UNL     1     -32.899  -9.297  18.993  0.00  0.00    +0.044 C 
ATOM     13  C   UNL     1     -32.789  -9.657  17.536  0.00  0.00    -0.043 A 
ATOM     14  C   UNL     1     -33.741  -9.168  16.624  0.00  0.00    +0.004 A 
ATOM     15  C   UNL     1     -33.654  -9.493  15.268  0.00  0.00    +0.000 A 
ATOM     16  C   UNL     1     -32.618 -10.306  14.806  0.00  0.00    +0.001 A 
ATOM     17  C   UNL     1     -31.669 -10.805  15.701  0.00  0.00    +0.008 A 
ATOM     18  C   UNL     1     -31.755 -10.500  17.067  0.00  0.00    -0.022 A 
ENDBRANCH   1  18
BRANCH   2  19
ATOM     19  C   UNL     1     -31.477 -13.405  17.544  0.00  0.00    +0.049 C 
BRANCH  19  20
ATOM     20  C   UNL     1     -30.654 -14.638  17.159  0.00  0.00    +0.125 C 
BRANCH  20  21
ATOM     21  C   UNL     1     -29.731 -14.318  16.027  0.00  0.00    +0.305 C 
ATOM     22  O   UNL     1     -30.199 -14.009  14.899  0.00  0.00    -0.251 OA
BRANCH  21  23
ATOM     23  O   UNL     1     -28.356 -14.318  16.235  0.00  0.00    -0.481 OA
ATOM     24  H   UNL     1     -27.830 -13.451  16.236  0.00  0.00    +0.295 HD
ENDBRANCH  21  23
ENDBRANCH  20  21
ENDBRANCH  19  20
ENDBRANCH   2  19
TORSDOF 6
ENDMDL
MODEL 9
REMARK VINA RESULT:    -4.409      3.128      7.195
REMARK INTER + INTRA:          -6.958
REMARK INTER:                  -5.806
REMARK INTRA:                  -1.151
REMARK UNBOUND:                -1.132
REMARK  Name = 
REMARK  7 active torsions:
REMARK  status: ('A' for Active; 'I' for Inactive)
REMARK    1  A    between atoms: C_1  and  C_2
REMARK    2  A    between atoms: C_7  and  C_8
REMARK    3  A    between atoms: C_9  and  C_10
REMARK    4  A    between atoms: C_9  and  C_15
REMARK    5  A    between atoms: C_10  and  C_11
REMARK    6  A    between atoms: C_11  and  C_12
REMARK    7  A    between atoms: C_12  and  O_14
REMARK                            x       y       z     vdW  Elec       q    Type
REMARK                         _______ _______ _______ _____ _____    ______ ____
ROOT
ATOM      1  C   UNL     1     -32.288  -9.984  18.181  0.00  0.00    +0.014 C 
ATOM      2  C   UNL     1     -31.488 -10.326  17.150  0.00  0.00    -0.014 C 
ENDROOT
BRANCH   2   3
ATOM      3  C   UNL     1     -32.071 -10.897  15.909  0.00  0.00    +0.106 A 
ATOM      4  N   UNL     1     -31.373 -11.707  15.071  0.00  0.00    -0.239 NA
ATOM      5  C   UNL     1     -32.126 -12.096  14.011  0.00  0.00    +0.079 A 
ATOM      6  C   UNL     1     -31.673 -12.931  12.988  0.00  0.00    +0.029 A 
ATOM      7  C   UNL     1     -32.557 -13.259  11.945  0.00  0.00    +0.002 A 
ATOM      8  C   UNL     1     -33.873 -12.752  11.938  0.00  0.00    +0.001 A 
ATOM      9  C   UNL     1     -34.316 -11.914  12.973  0.00  0.00    +0.017 A 
ATOM     10  C   UNL     1     -33.420 -11.605  13.993  0.00  0.00    +0.040 A 
ATOM     11  S   UNL     1     -33.657 -10.645  15.346  0.00  0.00    -0.067 S 
ENDBRANCH   2   3
BRANCH   1  18
ATOM     12  C   UNL     1     -32.067 -11.688  20.593  0.00  0.00    +0.044 C 
ATOM     13  C   UNL     1     -31.670 -10.236  20.611  0.00  0.00    -0.043 A 
ATOM     14  C   UNL     1     -31.200  -9.658  21.804  0.00  0.00    +0.004 A 
ATOM     15  C   UNL     1     -30.827  -8.312  21.839  0.00  0.00    +0.000 A 
ATOM     16  C   UNL     1     -30.918  -7.528  20.688  0.00  0.00    +0.001 A 
ATOM     17  C   UNL     1     -31.391  -8.086  19.498  0.00  0.00    +0.008 A 
ATOM     18  C   UNL     1     -31.784  -9.432  19.454  0.00  0.00    -0.022 A 
ENDBRANCH   1  18
BRANCH   2  19
ATOM     19  C   UNL     1     -29.979 -10.210  17.245  0.00  0.00    +0.049 C 
BRANCH  19  20
ATOM     20  C   UNL     1     -29.359 -11.541  17.680  0.00  0.00    +0.125 C 
BRANCH  20  21
ATOM     21  C   UNL     1     -28.281 -11.310  18.690  0.00  0.00    +0.305 C 
ATOM     22  O   UNL     1     -28.521 -11.464  19.917  0.00  0.00    -0.251 OA
BRANCH  21  23
ATOM     23  O   UNL     1     -26.999 -10.970  18.268  0.00  0.00    -0.481 OA
ATOM     24  H   UNL     1     -26.190 -11.188  18.838  0.00  0.00    +0.295 HD
ENDBRANCH  21  23
ENDBRANCH  20  21
ENDBRANCH  19  20
ENDBRANCH   2  19
TORSDOF 6
ENDMDL
