MODEL 1
REMARK VINA RESULT:    -5.845      0.000      0.000
REMARK INTER + INTRA:          -7.020
REMARK INTER:                  -6.870
REMARK INTRA:                  -0.150
REMARK UNBOUND:                -0.150
REMARK  Name = 
REMARK  4 active torsions:
REMARK  status: ('A' for Active; 'I' for Inactive)
REMARK    1  A    between atoms: C_1  and  C_2
REMARK    2  A    between atoms: C_5  and  S_8
REMARK    3  A    between atoms: S_8  and  N_11
REMARK    4  A    between atoms: C_15  and  C_17
REMARK                            x       y       z     vdW  Elec       q    Type
REMARK                         _______ _______ _______ _____ _____    ______ ____
ROOT
ATOM      1  N   UNL     1     -31.707 -10.780  18.099  0.00  0.00    -0.192 N 
ATOM      2  C   UNL     1     -30.444 -11.343  18.457  0.00  0.00    +0.201 A 
ATOM      3  N   UNL     1     -29.316 -11.185  17.733  0.00  0.00    -0.124 NA
ATOM      4  N   UNL     1     -28.262 -11.794  18.272  0.00  0.00    -0.138 NA
ATOM      5  C   UNL     1     -28.542 -12.441  19.427  0.00  0.00    +0.152 A 
ATOM      6  S   UNL     1     -30.175 -12.269  19.834  0.00  0.00    -0.028 S 
ATOM      7  H   UNL     1     -32.537 -10.947  18.708  0.00  0.00    +0.176 HD
ENDROOT
BRANCH   5   8
ATOM      8  C   UNL     1     -27.529 -13.182  20.199  0.00  0.00    +0.098 A 
ATOM      9  C   UNL     1     -27.865 -13.890  21.365  0.00  0.00    +0.030 A 
ATOM     10  C   UNL     1     -26.869 -14.578  22.062  0.00  0.00    +0.004 A 
ATOM     11  C   UNL     1     -25.554 -14.557  21.596  0.00  0.00    +0.020 A 
ATOM     12  C   UNL     1     -25.253 -13.845  20.434  0.00  0.00    +0.111 A 
ATOM     13  N   UNL     1     -26.236 -13.181  19.769  0.00  0.00    -0.253 NA
ENDBRANCH   5   8
BRANCH   1  14
ATOM     14  S   UNL     1     -31.889  -9.789  16.690  0.00  0.00    +0.074 S 
ATOM     15  O   UNL     1     -30.580  -9.120  16.378  0.00  0.00    -0.150 OA
ATOM     16  O   UNL     1     -32.926  -8.736  16.965  0.00  0.00    -0.150 OA
BRANCH  14  21
ATOM     17  C   UNL     1     -33.542 -13.258  11.991  0.00  0.00    +0.044 C 
ATOM     18  C   UNL     1     -33.120 -12.377  13.128  0.00  0.00    -0.050 A 
ATOM     19  C   UNL     1     -31.891 -12.590  13.770  0.00  0.00    +0.005 A 
ATOM     20  C   UNL     1     -31.514 -11.792  14.853  0.00  0.00    +0.029 A 
ATOM     21  C   UNL     1     -32.368 -10.782  15.318  0.00  0.00    +0.109 A 
ATOM     22  C   UNL     1     -33.602 -10.575  14.686  0.00  0.00    +0.029 A 
ATOM     23  C   UNL     1     -33.979 -11.373  13.602  0.00  0.00    +0.005 A 
ENDBRANCH  14  21
ENDBRANCH   1  14
TORSDOF 3
ENDMDL
MODEL 2
REMARK VINA RESULT:    -5.495      1.089      1.182
REMARK INTER + INTRA:          -6.609
REMARK INTER:                  -6.527
REMARK INTRA:                  -0.082
REMARK UNBOUND:                -0.150
REMARK  Name = 
REMARK  4 active torsions:
REMARK  status: ('A' for Active; 'I' for Inactive)
REMARK    1  A    between atoms: C_1  and  C_2
REMARK    2  A    between atoms: C_5  and  S_8
REMARK    3  A    between atoms: S_8  and  N_11
REMARK    4  A    between atoms: C_15  and  C_17
REMARK                            x       y       z     vdW  Elec       q    Type
REMARK                         _______ _______ _______ _____ _____    ______ ____
ROOT
ATOM      1  N   UNL     1     -30.825  -9.937  17.277  0.00  0.00    -0.192 N 
ATOM      2  C   UNL     1     -30.186 -10.940  18.070  0.00  0.00    +0.201 A 
ATOM      3  N   UNL     1     -30.821 -12.019  18.574  0.00  0.00    -0.124 NA
ATOM      4  N   UNL     1     -30.016 -12.818  19.271  0.00  0.00    -0.138 NA
ATOM      5  C   UNL     1     -28.736 -12.381  19.328  0.00  0.00    +0.152 A 
ATOM      6  S   UNL     1     -28.555 -10.930  18.478  0.00  0.00    -0.028 S 
ATOM      7  H   UNL     1     -30.269  -9.128  16.923  0.00  0.00    +0.176 HD
ENDROOT
BRANCH   5   8
ATOM      8  C   UNL     1     -27.671 -13.106  20.043  0.00  0.00    +0.098 A 
ATOM      9  C   UNL     1     -27.956 -13.946  21.133  0.00  0.00    +0.030 A 
ATOM     10  C   UNL     1     -26.912 -14.611  21.779  0.00  0.00    +0.004 A 
ATOM     11  C   UNL     1     -25.599 -14.437  21.339  0.00  0.00    +0.020 A 
ATOM     12  C   UNL     1     -25.349 -13.596  20.254  0.00  0.00    +0.111 A 
ATOM     13  N   UNL     1     -26.379 -12.956  19.637  0.00  0.00    -0.253 NA
ENDBRANCH   5   8
BRANCH   1  14
ATOM     14  S   UNL     1     -32.500 -10.050  16.854  0.00  0.00    +0.074 S 
ATOM     15  O   UNL     1     -33.035  -8.676  16.564  0.00  0.00    -0.150 OA
ATOM     16  O   UNL     1     -33.257 -10.639  18.011  0.00  0.00    -0.150 OA
BRANCH  14  21
ATOM     17  C   UNL     1     -33.148 -13.552  11.938  0.00  0.00    +0.044 C 
ATOM     18  C   UNL     1     -32.976 -12.660  13.130  0.00  0.00    -0.050 A 
ATOM     19  C   UNL     1     -31.799 -12.717  13.893  0.00  0.00    +0.005 A 
ATOM     20  C   UNL     1     -31.654 -11.912  15.026  0.00  0.00    +0.029 A 
ATOM     21  C   UNL     1     -32.689 -11.053  15.419  0.00  0.00    +0.109 A 
ATOM     22  C   UNL     1     -33.870 -11.003  14.666  0.00  0.00    +0.029 A 
ATOM     23  C   UNL     1     -34.016 -11.807  13.533  0.00  0.00    +0.005 A 
ENDBRANCH  14  21
ENDBRANCH   1  14
TORSDOF 3
ENDMDL
MODEL 3
REMARK VINA RESULT:    -5.116      2.090      7.750
REMARK INTER + INTRA:          -6.164
REMARK INTER:                  -5.886
REMARK INTRA:                  -0.277
REMARK UNBOUND:                -0.150
REMARK  Name = 
REMARK  4 active torsions:
REMARK  status: ('A' for Active; 'I' for Inactive)
REMARK    1  A    between atoms: C_1  and  C_2
REMARK    2  A    between atoms: C_5  and  S_8
REMARK    3  A    between atoms: S_8  and  N_11
REMARK    4  A    between atoms: C_15  and  C_17
REMARK                            x       y       z     vdW  Elec       q    Type
REMARK                         _______ _______ _______ _____ _____    ______ ____
ROOT
ATOM      1  N   UNL     1     -31.597 -11.083  19.455  0.00  0.00    -0.192 N 
ATOM      2  C   UNL     1     -31.628 -11.291  18.042  0.00  0.00    +0.201 A 
ATOM      3  N   UNL     1     -30.611 -10.977  17.213  0.00  0.00    -0.124 NA
ATOM      4  N   UNL     1     -30.868 -11.272  15.940  0.00  0.00    -0.138 NA
ATOM      5  C   UNL     1     -32.089 -11.822  15.747  0.00  0.00    +0.152 A 
ATOM      6  S   UNL     1     -32.924 -11.966  17.210  0.00  0.00    -0.028 S 
ATOM      7  H   UNL     1     -32.425 -11.348  20.033  0.00  0.00    +0.176 HD
ENDROOT
BRANCH   5   8
ATOM      8  C   UNL     1     -32.586 -12.229  14.421  0.00  0.00    +0.098 A 
ATOM      9  C   UNL     1     -31.766 -12.905  13.502  0.00  0.00    +0.030 A 
ATOM     10  C   UNL     1     -32.283 -13.270  12.257  0.00  0.00    +0.004 A 
ATOM     11  C   UNL     1     -33.606 -12.962  11.938  0.00  0.00    +0.020 A 
ATOM     12  C   UNL     1     -34.395 -12.290  12.872  0.00  0.00    +0.111 A 
ATOM     13  N   UNL     1     -33.874 -11.942  14.079  0.00  0.00    -0.253 NA
ENDBRANCH   5   8
BRANCH   1  14
ATOM     14  S   UNL     1     -30.200 -10.432  20.244  0.00  0.00    +0.074 S 
ATOM     15  O   UNL     1     -30.582  -9.939  21.611  0.00  0.00    -0.150 OA
ATOM     16  O   UNL     1     -29.676  -9.278  19.434  0.00  0.00    -0.150 OA
BRANCH  14  21
ATOM     17  C   UNL     1     -25.919 -14.699  20.806  0.00  0.00    +0.044 C 
ATOM     18  C   UNL     1     -26.999 -13.670  20.655  0.00  0.00    -0.050 A 
ATOM     19  C   UNL     1     -27.083 -12.897  19.486  0.00  0.00    +0.005 A 
ATOM     20  C   UNL     1     -28.067 -11.914  19.361  0.00  0.00    +0.029 A 
ATOM     21  C   UNL     1     -28.969 -11.680  20.408  0.00  0.00    +0.109 A 
ATOM     22  C   UNL     1     -28.880 -12.442  21.581  0.00  0.00    +0.029 A 
ATOM     23  C   UNL     1     -27.896 -13.427  21.706  0.00  0.00    +0.005 A 
ENDBRANCH  14  21
ENDBRANCH   1  14
TORSDOF 3
ENDMDL
MODEL 4
REMARK VINA RESULT:    -4.573      2.730      3.898
REMARK INTER + INTRA:          -5.525
REMARK INTER:                  -5.318
REMARK INTRA:                  -0.207
REMARK UNBOUND:                -0.150
REMARK  Name = 
REMARK  4 active torsions:
REMARK  status: ('A' for Active; 'I' for Inactive)
REMARK    1  A    between atoms: C_1  and  C_2
REMARK    2  A    between atoms: C_5  and  S_8
REMARK    3  A    between atoms: S_8  and  N_11
REMARK    4  A    between atoms: C_15  and  C_17
REMARK                            x       y       z     vdW  Elec       q    Type
REMARK                         _______ _______ _______ _____ _____    ______ ____
ROOT
ATOM      1  N   UNL     1     -31.052 -11.457  16.862  0.00  0.00    -0.192 N 
ATOM      2  C   UNL     1     -29.961 -11.692  17.755  0.00  0.00    +0.201 A 
ATOM      3  N   UNL     1     -29.158 -10.718  18.234  0.00  0.00    -0.124 NA
ATOM      4  N   UNL     1     -28.218 -11.179  19.057  0.00  0.00    -0.138 NA
ATOM      5  C   UNL     1     -28.265 -12.518  19.239  0.00  0.00    +0.152 A 
ATOM      6  S   UNL     1     -29.528 -13.204  18.348  0.00  0.00    -0.028 S 
ATOM      7  H   UNL     1     -31.629 -12.261  16.531  0.00  0.00    +0.176 HD
ENDROOT
BRANCH   5   8
ATOM      8  C   UNL     1     -27.324 -13.245  20.108  0.00  0.00    +0.098 A 
ATOM      9  C   UNL     1     -27.755 -13.908  21.270  0.00  0.00    +0.030 A 
ATOM     10  C   UNL     1     -26.824 -14.583  22.062  0.00  0.00    +0.004 A 
ATOM     11  C   UNL     1     -25.478 -14.594  21.695  0.00  0.00    +0.020 A 
ATOM     12  C   UNL     1     -25.081 -13.926  20.536  0.00  0.00    +0.111 A 
ATOM     13  N   UNL     1     -26.002 -13.274  19.777  0.00  0.00    -0.253 NA
ENDBRANCH   5   8
BRANCH   1  14
ATOM     14  S   UNL     1     -31.467  -9.859  16.341  0.00  0.00    +0.074 S 
ATOM     15  O   UNL     1     -32.268  -9.940  15.071  0.00  0.00    -0.150 OA
ATOM     16  O   UNL     1     -30.204  -9.088  16.077  0.00  0.00    -0.150 OA
BRANCH  14  21
ATOM     17  C   UNL     1     -34.767  -7.052  20.593  0.00  0.00    +0.044 C 
ATOM     18  C   UNL     1     -33.959  -7.777  19.559  0.00  0.00    -0.050 A 
ATOM     19  C   UNL     1     -32.570  -7.906  19.708  0.00  0.00    +0.005 A 
ATOM     20  C   UNL     1     -31.812  -8.549  18.727  0.00  0.00    +0.029 A 
ATOM     21  C   UNL     1     -32.432  -9.058  17.577  0.00  0.00    +0.109 A 
ATOM     22  C   UNL     1     -33.818  -8.920  17.420  0.00  0.00    +0.029 A 
ATOM     23  C   UNL     1     -34.576  -8.277  18.402  0.00  0.00    +0.005 A 
ENDBRANCH  14  21
ENDBRANCH   1  14
TORSDOF 3
ENDMDL
MODEL 5
REMARK VINA RESULT:    -4.530      3.144      7.745
REMARK INTER + INTRA:          -5.474
REMARK INTER:                  -5.607
REMARK INTRA:                   0.133
REMARK UNBOUND:                -0.150
REMARK  Name = 
REMARK  4 active torsions:
REMARK  status: ('A' for Active; 'I' for Inactive)
REMARK    1  A    between atoms: C_1  and  C_2
REMARK    2  A    between atoms: C_5  and  S_8
REMARK    3  A    between atoms: S_8  and  N_11
REMARK    4  A    between atoms: C_15  and  C_17
REMARK                            x       y       z     vdW  Elec       q    Type
REMARK                         _______ _______ _______ _____ _____    ______ ____
ROOT
ATOM      1  N   UNL     1     -29.143 -13.992  18.483  0.00  0.00    -0.192 N 
ATOM      2  C   UNL     1     -29.847 -13.435  17.373  0.00  0.00    +0.201 A 
ATOM      3  N   UNL     1     -29.845 -12.121  17.062  0.00  0.00    -0.124 NA
ATOM      4  N   UNL     1     -30.565 -11.842  15.978  0.00  0.00    -0.138 NA
ATOM      5  C   UNL     1     -31.146 -12.928  15.418  0.00  0.00    +0.152 A 
ATOM      6  S   UNL     1     -30.768 -14.329  16.287  0.00  0.00    -0.028 S 
ATOM      7  H   UNL     1     -29.194 -15.019  18.663  0.00  0.00    +0.176 HD
ENDROOT
BRANCH   5   8
ATOM      8  C   UNL     1     -31.988 -12.857  14.211  0.00  0.00    +0.098 A 
ATOM      9  C   UNL     1     -31.685 -13.600  13.058  0.00  0.00    +0.030 A 
ATOM     10  C   UNL     1     -32.513 -13.499  11.938  0.00  0.00    +0.004 A 
ATOM     11  C   UNL     1     -33.631 -12.665  11.974  0.00  0.00    +0.020 A 
ATOM     12  C   UNL     1     -33.905 -11.940  13.134  0.00  0.00    +0.111 A 
ATOM     13  N   UNL     1     -33.087 -12.051  14.215  0.00  0.00    -0.253 NA
ENDBRANCH   5   8
BRANCH   1  14
ATOM     14  S   UNL     1     -28.169 -13.008  19.524  0.00  0.00    +0.074 S 
ATOM     15  O   UNL     1     -27.063 -12.379  18.726  0.00  0.00    -0.150 OA
ATOM     16  O   UNL     1     -27.570 -13.876  20.596  0.00  0.00    -0.150 OA
BRANCH  14  21
ATOM     17  C   UNL     1     -31.605  -8.631  21.951  0.00  0.00    +0.044 C 
ATOM     18  C   UNL     1     -30.728  -9.698  21.369  0.00  0.00    -0.050 A 
ATOM     19  C   UNL     1     -30.144  -9.525  20.105  0.00  0.00    +0.005 A 
ATOM     20  C   UNL     1     -29.356 -10.535  19.548  0.00  0.00    +0.029 A 
ATOM     21  C   UNL     1     -29.156 -11.737  20.239  0.00  0.00    +0.109 A 
ATOM     22  C   UNL     1     -29.748 -11.918  21.497  0.00  0.00    +0.029 A 
ATOM     23  C   UNL     1     -30.535 -10.908  22.055  0.00  0.00    +0.005 A 
ENDBRANCH  14  21
ENDBRANCH   1  14
TORSDOF 3
ENDMDL
MODEL 6
REMARK VINA RESULT:    -4.298      2.169      2.607
REMARK INTER + INTRA:          -5.202
REMARK INTER:                  -4.925
REMARK INTRA:                  -0.277
REMARK UNBOUND:                -0.150
REMARK  Name = 
REMARK  4 active torsions:
REMARK  status: ('A' for Active; 'I' for Inactive)
REMARK    1  A    between atoms: C_1  and  C_2
REMARK    2  A    between atoms: C_5  and  S_8
REMARK    3  A    between atoms: S_8  and  N_11
REMARK    4  A    between atoms: C_15  and  C_17
REMARK                            x       y       z     vdW  Elec       q    Type
REMARK                         _______ _______ _______ _____ _____    ______ ____
ROOT
ATOM      1  N   UNL     1     -31.912  -9.202  18.885  0.00  0.00    -0.192 N 
ATOM      2  C   UNL     1     -31.189 -10.348  19.339  0.00  0.00    +0.201 A 
ATOM      3  N   UNL     1     -31.756 -11.550  19.577  0.00  0.00    -0.124 NA
ATOM      4  N   UNL     1     -30.880 -12.467  19.983  0.00  0.00    -0.138 NA
ATOM      5  C   UNL     1     -29.612 -12.003  20.072  0.00  0.00    +0.152 A 
ATOM      6  S   UNL     1     -29.534 -10.372  19.631  0.00  0.00    -0.028 S 
ATOM      7  H   UNL     1     -31.406  -8.304  18.726  0.00  0.00    +0.176 HD
ENDROOT
BRANCH   5   8
ATOM      8  C   UNL     1     -28.478 -12.841  20.499  0.00  0.00    +0.098 A 
ATOM      9  C   UNL     1     -27.268 -12.862  19.785  0.00  0.00    +0.030 A 
ATOM     10  C   UNL     1     -26.221 -13.673  20.230  0.00  0.00    +0.004 A 
ATOM     11  C   UNL     1     -26.385 -14.452  21.376  0.00  0.00    +0.020 A 
ATOM     12  C   UNL     1     -27.599 -14.409  22.062  0.00  0.00    +0.111 A 
ATOM     13  N   UNL     1     -28.607 -13.613  21.615  0.00  0.00    -0.253 NA
ENDBRANCH   5   8
BRANCH   1  14
ATOM     14  S   UNL     1     -33.610  -9.276  18.555  0.00  0.00    +0.074 S 
ATOM     15  O   UNL     1     -34.193  -7.893  18.626  0.00  0.00    -0.150 OA
ATOM     16  O   UNL     1     -34.272 -10.142  19.591  0.00  0.00    -0.150 OA
BRANCH  14  21
ATOM     17  C   UNL     1     -34.486 -11.512  12.979  0.00  0.00    +0.044 C 
ATOM     18  C   UNL     1     -34.306 -10.959  14.361  0.00  0.00    -0.050 A 
ATOM     19  C   UNL     1     -34.174  -9.576  14.560  0.00  0.00    +0.005 A 
ATOM     20  C   UNL     1     -33.970  -9.064  15.843  0.00  0.00    +0.029 A 
ATOM     21  C   UNL     1     -33.878  -9.929  16.942  0.00  0.00    +0.109 A 
ATOM     22  C   UNL     1     -33.997 -11.312  16.746  0.00  0.00    +0.029 A 
ATOM     23  C   UNL     1     -34.203 -11.824  15.462  0.00  0.00    +0.005 A 
ENDBRANCH  14  21
ENDBRANCH   1  14
TORSDOF 3
ENDMDL
MODEL 7
REMARK VINA RESULT:    -4.059      3.751      5.341
REMARK INTER + INTRA:          -4.921
REMARK INTER:                  -4.850
REMARK INTRA:                  -0.071
REMARK UNBOUND:                -0.150
REMARK  Name = 
REMARK  4 active torsions:
REMARK  status: ('A' for Active; 'I' for Inactive)
REMARK    1  A    between atoms: C_1  and  C_2
REMARK    2  A    between atoms: C_5  and  S_8
REMARK    3  A    between atoms: S_8  and  N_11
REMARK    4  A    between atoms: C_15  and  C_17
REMARK                            x       y       z     vdW  Elec       q    Type
REMARK                         _______ _______ _______ _____ _____    ______ ____
ROOT
ATOM      1  N   UNL     1     -31.216 -12.397  18.635  0.00  0.00    -0.192 N 
ATOM      2  C   UNL     1     -30.924 -11.058  19.040  0.00  0.00    +0.201 A 
ATOM      3  N   UNL     1     -29.879 -10.341  18.574  0.00  0.00    -0.124 NA
ATOM      4  N   UNL     1     -29.820  -9.115  19.090  0.00  0.00    -0.138 NA
ATOM      5  C   UNL     1     -30.813  -8.847  19.968  0.00  0.00    +0.152 A 
ATOM      6  S   UNL     1     -31.842 -10.178  20.140  0.00  0.00    -0.028 S 
ATOM      7  H   UNL     1     -32.041 -12.890  19.041  0.00  0.00    +0.176 HD
ENDROOT
BRANCH   5   8
ATOM      8  C   UNL     1     -30.946  -7.553  20.660  0.00  0.00    +0.098 A 
ATOM      9  C   UNL     1     -32.159  -7.153  21.246  0.00  0.00    +0.030 A 
ATOM     10  C   UNL     1     -32.236  -5.916  21.891  0.00  0.00    +0.004 A 
ATOM     11  C   UNL     1     -31.112  -5.092  21.949  0.00  0.00    +0.020 A 
ATOM     12  C   UNL     1     -29.922  -5.519  21.358  0.00  0.00    +0.111 A 
ATOM     13  N   UNL     1     -29.866  -6.726  20.734  0.00  0.00    -0.253 NA
ENDBRANCH   5   8
BRANCH   1  14
ATOM     14  S   UNL     1     -30.250 -13.215  17.452  0.00  0.00    +0.074 S 
ATOM     15  O   UNL     1     -30.216 -14.684  17.766  0.00  0.00    -0.150 OA
ATOM     16  O   UNL     1     -28.851 -12.669  17.502  0.00  0.00    -0.150 OA
BRANCH  14  21
ATOM     17  C   UNL     1     -32.676 -12.469  11.938  0.00  0.00    +0.044 C 
ATOM     18  C   UNL     1     -32.048 -12.633  13.289  0.00  0.00    -0.050 A 
ATOM     19  C   UNL     1     -31.256 -13.757  13.571  0.00  0.00    +0.005 A 
ATOM     20  C   UNL     1     -30.702 -13.927  14.842  0.00  0.00    +0.029 A 
ATOM     21  C   UNL     1     -30.945 -12.986  15.851  0.00  0.00    +0.109 A 
ATOM     22  C   UNL     1     -31.746 -11.869  15.576  0.00  0.00    +0.029 A 
ATOM     23  C   UNL     1     -32.301 -11.698  14.305  0.00  0.00    +0.005 A 
ENDBRANCH  14  21
ENDBRANCH   1  14
TORSDOF 3
ENDMDL
MODEL 8
REMARK VINA RESULT:    -3.763      4.097      5.951
REMARK INTER + INTRA:          -4.573
REMARK INTER:                  -4.644
REMARK INTRA:                   0.070
REMARK UNBOUND:                -0.150
REMARK  Name = 
REMARK  4 active torsions:
REMARK  status: ('A' for Active; 'I' for Inactive)
REMARK    1  A    between atoms: C_1  and  C_2
REMARK    2  A    between atoms: C_5  and  S_8
REMARK    3  A    between atoms: S_8  and  N_11
REMARK    4  A    between atoms: C_15  and  C_17
REMARK                            x       y       z     vdW  Elec       q    Type
REMARK                         _______ _______ _______ _____ _____    ______ ____
ROOT
ATOM      1  N   UNL     1     -32.173 -11.644  17.169  0.00  0.00    -0.192 N 
ATOM      2  C   UNL     1     -31.813 -10.657  18.137  0.00  0.00    +0.201 A 
ATOM      3  N   UNL     1     -31.062 -10.913  19.230  0.00  0.00    -0.124 NA
ATOM      4  N   UNL     1     -30.850  -9.833  19.980  0.00  0.00    -0.138 NA
ATOM      5  C   UNL     1     -31.429  -8.712  19.491  0.00  0.00    +0.152 A 
ATOM      6  S   UNL     1     -32.257  -9.038  18.052  0.00  0.00    -0.028 S 
ATOM      7  H   UNL     1     -32.758 -11.372  16.349  0.00  0.00    +0.176 HD
ENDROOT
BRANCH   5   8
ATOM      8  C   UNL     1     -31.327  -7.400  20.154  0.00  0.00    +0.098 A 
ATOM      9  C   UNL     1     -32.448  -6.571  20.324  0.00  0.00    +0.030 A 
ATOM     10  C   UNL     1     -32.300  -5.336  20.959  0.00  0.00    +0.004 A 
ATOM     11  C   UNL     1     -31.044  -4.938  21.419  0.00  0.00    +0.020 A 
ATOM     12  C   UNL     1     -29.950  -5.784  21.235  0.00  0.00    +0.111 A 
ATOM     13  N   UNL     1     -30.113  -6.983  20.614  0.00  0.00    -0.253 NA
ENDBRANCH   5   8
BRANCH   1  14
ATOM     14  S   UNL     1     -31.627 -13.282  17.300  0.00  0.00    +0.074 S 
ATOM     15  O   UNL     1     -32.814 -14.195  17.430  0.00  0.00    -0.150 OA
ATOM     16  O   UNL     1     -30.769 -13.414  18.528  0.00  0.00    -0.150 OA
BRANCH  14  21
ATOM     17  C   UNL     1     -28.481 -14.763  12.325  0.00  0.00    +0.044 C 
ATOM     18  C   UNL     1     -29.273 -14.431  13.553  0.00  0.00    -0.050 A 
ATOM     19  C   UNL     1     -30.509 -13.777  13.443  0.00  0.00    +0.005 A 
ATOM     20  C   UNL     1     -31.230 -13.434  14.590  0.00  0.00    +0.029 A 
ATOM     21  C   UNL     1     -30.716 -13.727  15.861  0.00  0.00    +0.109 A 
ATOM     22  C   UNL     1     -29.475 -14.369  15.974  0.00  0.00    +0.029 A 
ATOM     23  C   UNL     1     -28.755 -14.713  14.827  0.00  0.00    +0.005 A 
ENDBRANCH  14  21
ENDBRANCH   1  14
TORSDOF 3
ENDMDL
