MODEL 1
REMARK VINA RESULT:    -5.329      0.000      0.000
REMARK INTER + INTRA:          -6.555
REMARK INTER:                  -6.108
REMARK INTRA:                  -0.447
REMARK UNBOUND:                -0.447
REMARK  Name = 
REMARK  3 active torsions:
REMARK  status: ('A' for Active; 'I' for Inactive)
REMARK    1  A    between atoms: C_2  and  O_3
REMARK    2  A    between atoms: C_2  and  C_4
REMARK    3  A    between atoms: C_9  and  C_10
REMARK                            x       y       z     vdW  Elec       q    Type
REMARK                         _______ _______ _______ _____ _____    ______ ____
ROOT
ATOM      1  C   UNL     1     -32.475 -12.049  14.193  0.00  0.00    +0.073 A 
ATOM      2  C   UNL     1     -31.520 -12.447  15.146  0.00  0.00    -0.007 A 
ATOM      3  C   UNL     1     -30.579 -13.610  15.090  0.00  0.00    +0.043 C 
ATOM      4  C   UNL     1     -29.704 -13.472  16.358  0.00  0.00    +0.042 C 
ATOM      5  C   UNL     1     -30.261 -12.279  17.085  0.00  0.00    -0.021 C 
ATOM      6  C   UNL     1     -29.933 -11.859  18.317  0.00  0.00    +0.013 C 
ATOM      7  C   UNL     1     -31.322 -11.712  16.283  0.00  0.00    +0.072 A 
ATOM      8  N   UNL     1     -32.034 -10.592  16.553  0.00  0.00    -0.247 NA
ATOM      9  C   UNL     1     -32.992 -10.165  15.685  0.00  0.00    +0.072 A 
ATOM     10  C   UNL     1     -33.730  -9.016  15.989  0.00  0.00    +0.028 A 
ATOM     11  C   UNL     1     -34.734  -8.576  15.126  0.00  0.00    +0.002 A 
ATOM     12  C   UNL     1     -35.016  -9.286  13.959  0.00  0.00    +0.001 A 
ATOM     13  C   UNL     1     -34.288 -10.435  13.636  0.00  0.00    +0.011 A 
ATOM     14  C   UNL     1     -33.249 -10.886  14.479  0.00  0.00    +0.015 A 
ENDROOT
BRANCH   6  15
ATOM     15  C   UNL     1     -28.901 -12.500  19.155  0.00  0.00    -0.025 A 
ATOM     16  C   UNL     1     -27.531 -12.283  18.930  0.00  0.00    +0.009 A 
ATOM     17  C   UNL     1     -26.576 -12.884  19.755  0.00  0.00    +0.020 A 
ATOM     18  C   UNL     1     -26.981 -13.692  20.822  0.00  0.00    +0.041 A 
ATOM     19 CL   UNL     1     -25.782 -14.443  21.859  0.00  0.00    -0.084 Cl
ATOM     20  C   UNL     1     -28.342 -13.889  21.070  0.00  0.00    +0.020 A 
ATOM     21  C   UNL     1     -29.300 -13.288  20.246  0.00  0.00    +0.009 A 
ENDBRANCH   6  15
BRANCH   1  23
ATOM     22  O   UNL     1     -33.622 -13.550  12.744  0.00  0.00    -0.245 OA
ATOM     23  C   UNL     1     -32.614 -12.817  12.935  0.00  0.00    +0.338 C 
BRANCH  23  24
ATOM     24  O   UNL     1     -31.652 -12.701  11.938  0.00  0.00    -0.477 OA
ATOM     25  H   UNL     1     -31.811 -12.112  11.128  0.00  0.00    +0.295 HD
ENDBRANCH  23  24
ENDBRANCH   1  23
TORSDOF 3
ENDMDL
MODEL 2
REMARK VINA RESULT:    -4.617      2.351      3.444
REMARK INTER + INTRA:          -5.739
REMARK INTER:                  -5.526
REMARK INTRA:                  -0.214
REMARK UNBOUND:                -0.447
REMARK  Name = 
REMARK  3 active torsions:
REMARK  status: ('A' for Active; 'I' for Inactive)
REMARK    1  A    between atoms: C_2  and  O_3
REMARK    2  A    between atoms: C_2  and  C_4
REMARK    3  A    between atoms: C_9  and  C_10
REMARK                            x       y       z     vdW  Elec       q    Type
REMARK                         _______ _______ _______ _____ _____    ______ ____
ROOT
ATOM      1  C   UNL     1     -33.701  -9.404  15.725  0.00  0.00    +0.073 A 
ATOM      2  C   UNL     1     -32.769  -9.902  16.654  0.00  0.00    -0.007 A 
ATOM      3  C   UNL     1     -32.323  -9.288  17.945  0.00  0.00    +0.043 C 
ATOM      4  C   UNL     1     -31.380 -10.338  18.578  0.00  0.00    +0.042 C 
ATOM      5  C   UNL     1     -31.298 -11.446  17.564  0.00  0.00    -0.021 C 
ATOM      6  C   UNL     1     -30.477 -12.506  17.592  0.00  0.00    +0.013 C 
ATOM      7  C   UNL     1     -32.174 -11.119  16.461  0.00  0.00    +0.072 A 
ATOM      8  N   UNL     1     -32.435 -11.886  15.376  0.00  0.00    -0.247 NA
ATOM      9  C   UNL     1     -33.308 -11.453  14.426  0.00  0.00    +0.072 A 
ATOM     10  C   UNL     1     -33.552 -12.251  13.303  0.00  0.00    +0.028 A 
ATOM     11  C   UNL     1     -34.422 -11.814  12.304  0.00  0.00    +0.002 A 
ATOM     12  C   UNL     1     -35.047 -10.572  12.414  0.00  0.00    +0.001 A 
ATOM     13  C   UNL     1     -34.819  -9.761  13.530  0.00  0.00    +0.011 A 
ATOM     14  C   UNL     1     -33.964 -10.192  14.566  0.00  0.00    +0.015 A 
ENDROOT
BRANCH   6  15
ATOM     15  C   UNL     1     -29.529 -12.782  18.690  0.00  0.00    -0.025 A 
ATOM     16  C   UNL     1     -29.960 -13.313  19.917  0.00  0.00    +0.009 A 
ATOM     17  C   UNL     1     -29.037 -13.588  20.931  0.00  0.00    +0.020 A 
ATOM     18  C   UNL     1     -27.675 -13.350  20.721  0.00  0.00    +0.041 A 
ATOM     19 CL   UNL     1     -26.518 -13.697  21.993  0.00  0.00    -0.084 Cl
ATOM     20  C   UNL     1     -27.236 -12.849  19.492  0.00  0.00    +0.020 A 
ATOM     21  C   UNL     1     -28.157 -12.574  18.477  0.00  0.00    +0.009 A 
ENDBRANCH   6  15
BRANCH   1  23
ATOM     22  O   UNL     1     -35.062  -7.972  17.053  0.00  0.00    -0.245 OA
ATOM     23  C   UNL     1     -34.389  -8.122  15.998  0.00  0.00    +0.338 C 
BRANCH  23  24
ATOM     24  O   UNL     1     -34.260  -7.059  15.110  0.00  0.00    -0.477 OA
ATOM     25  H   UNL     1     -34.162  -7.223  14.114  0.00  0.00    +0.295 HD
ENDBRANCH  23  24
ENDBRANCH   1  23
TORSDOF 3
ENDMDL
MODEL 3
REMARK VINA RESULT:    -4.303      3.712      5.542
REMARK INTER + INTRA:          -5.380
REMARK INTER:                  -5.320
REMARK INTRA:                  -0.059
REMARK UNBOUND:                -0.447
REMARK  Name = 
REMARK  3 active torsions:
REMARK  status: ('A' for Active; 'I' for Inactive)
REMARK    1  A    between atoms: C_2  and  O_3
REMARK    2  A    between atoms: C_2  and  C_4
REMARK    3  A    between atoms: C_9  and  C_10
REMARK                            x       y       z     vdW  Elec       q    Type
REMARK                         _______ _______ _______ _____ _____    ______ ____
ROOT
ATOM      1  C   UNL     1     -32.437 -12.663  13.678  0.00  0.00    +0.073 A 
ATOM      2  C   UNL     1     -32.771 -11.839  14.768  0.00  0.00    -0.007 A 
ATOM      3  C   UNL     1     -33.936 -10.909  14.909  0.00  0.00    +0.043 C 
ATOM      4  C   UNL     1     -33.837 -10.367  16.354  0.00  0.00    +0.042 C 
ATOM      5  C   UNL     1     -32.577 -10.971  16.910  0.00  0.00    -0.021 C 
ATOM      6  C   UNL     1     -31.985 -10.674  18.076  0.00  0.00    +0.013 C 
ATOM      7  C   UNL     1     -32.017 -11.854  15.910  0.00  0.00    +0.072 A 
ATOM      8  N   UNL     1     -30.921 -12.638  16.042  0.00  0.00    -0.247 NA
ATOM      9  C   UNL     1     -30.527 -13.441  15.015  0.00  0.00    +0.072 A 
ATOM     10  C   UNL     1     -29.382 -14.231  15.163  0.00  0.00    +0.028 A 
ATOM     11  C   UNL     1     -28.945 -15.040  14.114  0.00  0.00    +0.002 A 
ATOM     12  C   UNL     1     -29.644 -15.059  12.906  0.00  0.00    +0.001 A 
ATOM     13  C   UNL     1     -30.793 -14.280  12.740  0.00  0.00    +0.011 A 
ATOM     14  C   UNL     1     -31.269 -13.473  13.795  0.00  0.00    +0.015 A 
ENDROOT
BRANCH   6  15
ATOM     15  C   UNL     1     -32.529  -9.708  19.050  0.00  0.00    -0.025 A 
ATOM     16  C   UNL     1     -32.237  -8.336  18.967  0.00  0.00    +0.009 A 
ATOM     17  C   UNL     1     -32.787  -7.439  19.888  0.00  0.00    +0.020 A 
ATOM     18  C   UNL     1     -33.647  -7.903  20.889  0.00  0.00    +0.041 A 
ATOM     19 CL   UNL     1     -34.338  -6.777  22.042  0.00  0.00    -0.084 Cl
ATOM     20  C   UNL     1     -33.966  -9.262  20.960  0.00  0.00    +0.020 A 
ATOM     21  C   UNL     1     -33.417 -10.160  20.039  0.00  0.00    +0.009 A 
ENDBRANCH   6  15
BRANCH   1  23
ATOM     22  O   UNL     1     -33.671 -11.607  11.938  0.00  0.00    -0.245 OA
ATOM     23  C   UNL     1     -33.314 -12.685  12.486  0.00  0.00    +0.338 C 
BRANCH  23  24
ATOM     24  O   UNL     1     -33.714 -13.899  11.938  0.00  0.00    -0.477 OA
ATOM     25  H   UNL     1     -34.436 -14.457  12.381  0.00  0.00    +0.295 HD
ENDBRANCH  23  24
ENDBRANCH   1  23
TORSDOF 3
ENDMDL
MODEL 4
REMARK VINA RESULT:    -4.188      3.937      6.062
REMARK INTER + INTRA:          -5.248
REMARK INTER:                  -5.127
REMARK INTRA:                  -0.121
REMARK UNBOUND:                -0.447
REMARK  Name = 
REMARK  3 active torsions:
REMARK  status: ('A' for Active; 'I' for Inactive)
REMARK    1  A    between atoms: C_2  and  O_3
REMARK    2  A    between atoms: C_2  and  C_4
REMARK    3  A    between atoms: C_9  and  C_10
REMARK                            x       y       z     vdW  Elec       q    Type
REMARK                         _______ _______ _______ _____ _____    ______ ____
ROOT
ATOM      1  C   UNL     1     -30.483 -12.965  16.234  0.00  0.00    +0.073 A 
ATOM      2  C   UNL     1     -30.898 -11.940  17.103  0.00  0.00    -0.007 A 
ATOM      3  C   UNL     1     -30.508 -11.716  18.532  0.00  0.00    +0.043 C 
ATOM      4  C   UNL     1     -31.187 -10.384  18.923  0.00  0.00    +0.042 C 
ATOM      5  C   UNL     1     -31.979  -9.981  17.709  0.00  0.00    -0.021 C 
ATOM      6  C   UNL     1     -32.861  -8.974  17.618  0.00  0.00    +0.013 C 
ATOM      7  C   UNL     1     -31.731 -10.948  16.663  0.00  0.00    +0.072 A 
ATOM      8  N   UNL     1     -32.203 -10.911  15.394  0.00  0.00    -0.247 NA
ATOM      9  C   UNL     1     -31.861 -11.887  14.509  0.00  0.00    +0.072 A 
ATOM     10  C   UNL     1     -32.373 -11.842  13.208  0.00  0.00    +0.028 A 
ATOM     11  C   UNL     1     -32.057 -12.845  12.292  0.00  0.00    +0.002 A 
ATOM     12  C   UNL     1     -31.235 -13.907  12.672  0.00  0.00    +0.001 A 
ATOM     13  C   UNL     1     -30.711 -13.968  13.967  0.00  0.00    +0.011 A 
ATOM     14  C   UNL     1     -30.995 -12.951  14.903  0.00  0.00    +0.015 A 
ENDROOT
BRANCH   6  15
ATOM     15  C   UNL     1     -33.162  -8.044  18.724  0.00  0.00    -0.025 A 
ATOM     16  C   UNL     1     -32.140  -7.391  19.435  0.00  0.00    +0.009 A 
ATOM     17  C   UNL     1     -32.455  -6.496  20.462  0.00  0.00    +0.020 A 
ATOM     18  C   UNL     1     -33.792  -6.232  20.776  0.00  0.00    +0.041 A 
ATOM     19 CL   UNL     1     -34.185  -5.107  22.062  0.00  0.00    -0.084 Cl
ATOM     20  C   UNL     1     -34.814  -6.855  20.054  0.00  0.00    +0.020 A 
ATOM     21  C   UNL     1     -34.501  -7.751  19.026  0.00  0.00    +0.009 A 
ENDBRANCH   6  15
BRANCH   1  23
ATOM     22  O   UNL     1     -28.298 -13.894  16.413  0.00  0.00    -0.245 OA
ATOM     23  C   UNL     1     -29.519 -13.982  16.714  0.00  0.00    +0.338 C 
BRANCH  23  24
ATOM     24  O   UNL     1     -29.951 -15.018  17.535  0.00  0.00    -0.477 OA
ATOM     25  H   UNL     1     -29.921 -15.980  17.217  0.00  0.00    +0.295 HD
ENDBRANCH  23  24
ENDBRANCH   1  23
TORSDOF 3
ENDMDL
MODEL 5
REMARK VINA RESULT:    -4.014      4.812      6.757
REMARK INTER + INTRA:          -5.048
REMARK INTER:                  -5.524
REMARK INTRA:                   0.475
REMARK UNBOUND:                -0.447
REMARK  Name = 
REMARK  3 active torsions:
REMARK  status: ('A' for Active; 'I' for Inactive)
REMARK    1  A    between atoms: C_2  and  O_3
REMARK    2  A    between atoms: C_2  and  C_4
REMARK    3  A    between atoms: C_9  and  C_10
REMARK                            x       y       z     vdW  Elec       q    Type
REMARK                         _______ _______ _______ _____ _____    ______ ____
ROOT
ATOM      1  C   UNL     1     -31.478  -7.956  19.838  0.00  0.00    +0.073 A 
ATOM      2  C   UNL     1     -31.225  -8.958  18.885  0.00  0.00    -0.007 A 
ATOM      3  C   UNL     1     -30.063  -9.900  18.810  0.00  0.00    +0.043 C 
ATOM      4  C   UNL     1     -30.388 -10.836  17.622  0.00  0.00    +0.042 C 
ATOM      5  C   UNL     1     -31.680 -10.311  17.058  0.00  0.00    -0.021 C 
ATOM      6  C   UNL     1     -32.281 -10.698  15.922  0.00  0.00    +0.013 C 
ATOM      7  C   UNL     1     -32.123  -9.210  17.883  0.00  0.00    +0.072 A 
ATOM      8  N   UNL     1     -33.274  -8.508  17.752  0.00  0.00    -0.247 NA
ATOM      9  C   UNL     1     -33.568  -7.506  18.626  0.00  0.00    +0.072 A 
ATOM     10  C   UNL     1     -34.753  -6.781  18.463  0.00  0.00    +0.028 A 
ATOM     11  C   UNL     1     -35.061  -5.733  19.332  0.00  0.00    +0.002 A 
ATOM     12  C   UNL     1     -34.183  -5.397  20.362  0.00  0.00    +0.001 A 
ATOM     13  C   UNL     1     -32.995  -6.112  20.543  0.00  0.00    +0.011 A 
ATOM     14  C   UNL     1     -32.674  -7.193  19.694  0.00  0.00    +0.015 A 
ENDROOT
BRANCH   6  15
ATOM     15  C   UNL     1     -31.770 -11.772  15.048  0.00  0.00    -0.025 A 
ATOM     16  C   UNL     1     -32.211 -11.913  13.721  0.00  0.00    +0.009 A 
ATOM     17  C   UNL     1     -31.692 -12.925  12.908  0.00  0.00    +0.020 A 
ATOM     18  C   UNL     1     -30.715 -13.792  13.407  0.00  0.00    +0.041 A 
ATOM     19 CL   UNL     1     -30.062 -15.059  12.384  0.00  0.00    -0.084 Cl
ATOM     20  C   UNL     1     -30.249 -13.639  14.716  0.00  0.00    +0.020 A 
ATOM     21  C   UNL     1     -30.767 -12.628  15.531  0.00  0.00    +0.009 A 
ENDBRANCH   6  15
BRANCH   1  23
ATOM     22  O   UNL     1     -30.578  -8.502  21.974  0.00  0.00    -0.245 OA
ATOM     23  C   UNL     1     -30.529  -7.758  20.957  0.00  0.00    +0.338 C 
BRANCH  23  24
ATOM     24  O   UNL     1     -29.548  -6.775  20.873  0.00  0.00    -0.477 OA
ATOM     25  H   UNL     1     -29.499  -6.030  21.559  0.00  0.00    +0.295 HD
ENDBRANCH  23  24
ENDBRANCH   1  23
TORSDOF 3
ENDMDL
MODEL 6
REMARK VINA RESULT:    -3.947      4.541      7.027
REMARK INTER + INTRA:          -4.971
REMARK INTER:                  -4.428
REMARK INTRA:                  -0.542
REMARK UNBOUND:                -0.447
REMARK  Name = 
REMARK  3 active torsions:
REMARK  status: ('A' for Active; 'I' for Inactive)
REMARK    1  A    between atoms: C_2  and  O_3
REMARK    2  A    between atoms: C_2  and  C_4
REMARK    3  A    between atoms: C_9  and  C_10
REMARK                            x       y       z     vdW  Elec       q    Type
REMARK                         _______ _______ _______ _____ _____    ______ ____
ROOT
ATOM      1  C   UNL     1     -29.198 -12.570  18.108  0.00  0.00    +0.073 A 
ATOM      2  C   UNL     1     -29.929 -11.530  18.709  0.00  0.00    -0.007 A 
ATOM      3  C   UNL     1     -29.649 -10.819  19.997  0.00  0.00    +0.043 C 
ATOM      4  C   UNL     1     -30.722  -9.709  20.078  0.00  0.00    +0.042 C 
ATOM      5  C   UNL     1     -31.585  -9.915  18.863  0.00  0.00    -0.021 C 
ATOM      6  C   UNL     1     -32.741  -9.295  18.579  0.00  0.00    +0.013 C 
ATOM      7  C   UNL     1     -31.029 -11.002  18.089  0.00  0.00    +0.072 A 
ATOM      8  N   UNL     1     -31.471 -11.457  16.893  0.00  0.00    -0.247 NA
ATOM      9  C   UNL     1     -30.825 -12.480  16.269  0.00  0.00    +0.072 A 
ATOM     10  C   UNL     1     -31.307 -12.949  15.042  0.00  0.00    +0.028 A 
ATOM     11  C   UNL     1     -30.676 -14.013  14.398  0.00  0.00    +0.002 A 
ATOM     12  C   UNL     1     -29.565 -14.624  14.979  0.00  0.00    +0.001 A 
ATOM     13  C   UNL     1     -29.065 -14.168  16.203  0.00  0.00    +0.011 A 
ATOM     14  C   UNL     1     -29.670 -13.076  16.861  0.00  0.00    +0.015 A 
ENDROOT
BRANCH   6  15
ATOM     15  C   UNL     1     -33.336  -8.241  19.424  0.00  0.00    -0.025 A 
ATOM     16  C   UNL     1     -34.302  -8.540  20.400  0.00  0.00    +0.009 A 
ATOM     17  C   UNL     1     -34.832  -7.526  21.204  0.00  0.00    +0.020 A 
ATOM     18  C   UNL     1     -34.388  -6.209  21.052  0.00  0.00    +0.041 A 
ATOM     19 CL   UNL     1     -35.050  -4.938  22.062  0.00  0.00    -0.084 Cl
ATOM     20  C   UNL     1     -33.405  -5.909  20.103  0.00  0.00    +0.020 A 
ATOM     21  C   UNL     1     -32.875  -6.922  19.299  0.00  0.00    +0.009 A 
ENDBRANCH   6  15
BRANCH   1  23
ATOM     22  O   UNL     1     -26.872 -12.465  18.604  0.00  0.00    -0.245 OA
ATOM     23  C   UNL     1     -27.967 -13.069  18.762  0.00  0.00    +0.338 C 
BRANCH  23  24
ATOM     24  O   UNL     1     -28.021 -14.185  19.592  0.00  0.00    -0.477 OA
ATOM     25  H   UNL     1     -28.189 -14.085  20.586  0.00  0.00    +0.295 HD
ENDBRANCH  23  24
ENDBRANCH   1  23
TORSDOF 3
ENDMDL
MODEL 7
REMARK VINA RESULT:    -3.383      1.486      2.132
REMARK INTER + INTRA:          -4.324
REMARK INTER:                  -4.354
REMARK INTRA:                   0.030
REMARK UNBOUND:                -0.447
REMARK  Name = 
REMARK  3 active torsions:
REMARK  status: ('A' for Active; 'I' for Inactive)
REMARK    1  A    between atoms: C_2  and  O_3
REMARK    2  A    between atoms: C_2  and  C_4
REMARK    3  A    between atoms: C_9  and  C_10
REMARK                            x       y       z     vdW  Elec       q    Type
REMARK                         _______ _______ _______ _____ _____    ______ ____
ROOT
ATOM      1  C   UNL     1     -32.913 -10.463  15.886  0.00  0.00    +0.073 A 
ATOM      2  C   UNL     1     -31.885 -11.136  16.568  0.00  0.00    -0.007 A 
ATOM      3  C   UNL     1     -31.130 -12.358  16.143  0.00  0.00    +0.043 C 
ATOM      4  C   UNL     1     -30.057 -12.562  17.238  0.00  0.00    +0.042 C 
ATOM      5  C   UNL     1     -30.327 -11.483  18.251  0.00  0.00    -0.021 C 
ATOM      6  C   UNL     1     -29.758 -11.348  19.458  0.00  0.00    +0.013 C 
ATOM      7  C   UNL     1     -31.414 -10.663  17.763  0.00  0.00    +0.072 A 
ATOM      8  N   UNL     1     -31.917  -9.550  18.347  0.00  0.00    -0.247 NA
ATOM      9  C   UNL     1     -32.932  -8.865  17.753  0.00  0.00    +0.072 A 
ATOM     10  C   UNL     1     -33.451  -7.727  18.380  0.00  0.00    +0.028 A 
ATOM     11  C   UNL     1     -34.509  -7.025  17.801  0.00  0.00    +0.002 A 
ATOM     12  C   UNL     1     -35.062  -7.460  16.597  0.00  0.00    +0.001 A 
ATOM     13  C   UNL     1     -34.556  -8.592  15.953  0.00  0.00    +0.011 A 
ATOM     14  C   UNL     1     -33.469  -9.304  16.505  0.00  0.00    +0.015 A 
ENDROOT
BRANCH   6  15
ATOM     15  C   UNL     1     -28.705 -12.245  19.974  0.00  0.00    -0.025 A 
ATOM     16  C   UNL     1     -27.453 -12.348  19.342  0.00  0.00    +0.009 A 
ATOM     17  C   UNL     1     -26.465 -13.187  19.867  0.00  0.00    +0.020 A 
ATOM     18  C   UNL     1     -26.712 -13.915  21.035  0.00  0.00    +0.041 A 
ATOM     19 CL   UNL     1     -25.470 -14.965  21.693  0.00  0.00    -0.084 Cl
ATOM     20  C   UNL     1     -27.944 -13.795  21.684  0.00  0.00    +0.020 A 
ATOM     21  C   UNL     1     -28.934 -12.956  21.162  0.00  0.00    +0.009 A 
ENDBRANCH   6  15
BRANCH   1  23
ATOM     22  O   UNL     1     -32.509 -11.119  13.634  0.00  0.00    -0.245 OA
ATOM     23  C   UNL     1     -33.349 -10.951  14.558  0.00  0.00    +0.338 C 
BRANCH  23  24
ATOM     24  O   UNL     1     -34.686 -11.269  14.336  0.00  0.00    -0.477 OA
ATOM     25  H   UNL     1     -34.946 -12.151  13.911  0.00  0.00    +0.295 HD
ENDBRANCH  23  24
ENDBRANCH   1  23
TORSDOF 3
ENDMDL
