MODEL 1
REMARK VINA RESULT:    -4.231      0.000      0.000
REMARK INTER + INTRA:          -7.253
REMARK INTER:                  -6.086
REMARK INTRA:                  -1.166
REMARK UNBOUND:                -1.166
REMARK  Name = 
REMARK  10 active torsions:
REMARK  status: ('A' for Active; 'I' for Inactive)
REMARK    1  A    between atoms: C_1  and  O_2
REMARK    2  A    between atoms: O_2  and  C_3
REMARK    3  A    between atoms: C_6  and  C_7
REMARK    4  A    between atoms: C_8  and  C_9
REMARK    5  A    between atoms: C_8  and  C_14
REMARK    6  A    between atoms: C_9  and  C_10
REMARK    7  A    between atoms: C_10  and  C_11
REMARK    8  A    between atoms: C_11  and  O_13
REMARK    9  A    between atoms: C_23  and  O_25
REMARK   10  A    between atoms: O_25  and  C_26
REMARK                            x       y       z     vdW  Elec       q    Type
REMARK                         _______ _______ _______ _____ _____    ______ ____
ROOT
ATOM      1  C   UNL     1     -31.114 -12.956  17.332  0.00  0.00    +0.017 C 
ATOM      2  C   UNL     1     -30.248 -12.123  17.947  0.00  0.00    -0.014 C 
ENDROOT
BRANCH   2   3
ATOM      3  C   UNL     1     -29.279 -12.658  18.939  0.00  0.00    +0.106 A 
ATOM      4  N   UNL     1     -27.944 -12.727  18.700  0.00  0.00    -0.239 NA
ATOM      5  C   UNL     1     -27.275 -13.249  19.760  0.00  0.00    +0.079 A 
ATOM      6  C   UNL     1     -25.894 -13.442  19.803  0.00  0.00    +0.029 A 
ATOM      7  C   UNL     1     -25.324 -13.993  20.964  0.00  0.00    +0.002 A 
ATOM      8  C   UNL     1     -26.138 -14.342  22.061  0.00  0.00    +0.001 A 
ATOM      9  C   UNL     1     -27.527 -14.143  22.006  0.00  0.00    +0.017 A 
ATOM     10  C   UNL     1     -28.063 -13.596  20.844  0.00  0.00    +0.040 A 
ATOM     11  S   UNL     1     -29.663 -13.246  20.488  0.00  0.00    -0.067 S 
ENDBRANCH   2   3
BRANCH   1  15
ATOM     12  C   UNL     1     -33.942 -11.751  14.341  0.00  0.00    +0.124 A 
ATOM     13  C   UNL     1     -34.194 -11.514  15.695  0.00  0.00    +0.046 A 
ATOM     14  C   UNL     1     -33.271 -11.905  16.666  0.00  0.00    +0.015 A 
ATOM     15  C   UNL     1     -32.072 -12.528  16.295  0.00  0.00    +0.017 A 
ATOM     16  C   UNL     1     -31.809 -12.792  14.939  0.00  0.00    +0.131 A 
ATOM     17  C   UNL     1     -32.747 -12.395  13.964  0.00  0.00    +0.091 A 
BRANCH  12  19
ATOM     18  C   UNL     1     -34.631 -11.096  12.028  0.00  0.00    +0.277 C 
ATOM     19  O   UNL     1     -34.902 -11.336  13.405  0.00  0.00    -0.495 OA
ENDBRANCH  12  19
BRANCH  16  20
ATOM     20  O   UNL     1     -30.608 -13.437  14.597  0.00  0.00    -0.494 OA
ATOM     21  C   UNL     1     -30.338 -14.024  13.330  0.00  0.00    +0.277 C 
ENDBRANCH  16  20
ENDBRANCH   1  15
BRANCH   2  22
ATOM     22  C   UNL     1     -30.148 -10.658  17.564  0.00  0.00    +0.049 C 
BRANCH  22  23
ATOM     23  C   UNL     1     -30.190  -9.769  18.809  0.00  0.00    +0.125 C 
BRANCH  23  24
ATOM     24  C   UNL     1     -31.496  -9.044  18.891  0.00  0.00    +0.305 C 
ATOM     25  O   UNL     1     -32.154  -9.047  19.965  0.00  0.00    -0.251 OA
BRANCH  24  26
ATOM     26  O   UNL     1     -31.960  -8.329  17.791  0.00  0.00    -0.481 OA
ATOM     27  H   UNL     1     -31.928  -7.317  17.779  0.00  0.00    +0.295 HD
ENDBRANCH  24  26
ENDBRANCH  23  24
ENDBRANCH  22  23
ENDBRANCH   2  22
TORSDOF 8
ENDMDL
MODEL 2
REMARK VINA RESULT:    -4.171      2.129      2.929
REMARK INTER + INTRA:          -7.166
REMARK INTER:                  -6.020
REMARK INTRA:                  -1.146
REMARK UNBOUND:                -1.166
REMARK  Name = 
REMARK  10 active torsions:
REMARK  status: ('A' for Active; 'I' for Inactive)
REMARK    1  A    between atoms: C_1  and  O_2
REMARK    2  A    between atoms: O_2  and  C_3
REMARK    3  A    between atoms: C_6  and  C_7
REMARK    4  A    between atoms: C_8  and  C_9
REMARK    5  A    between atoms: C_8  and  C_14
REMARK    6  A    between atoms: C_9  and  C_10
REMARK    7  A    between atoms: C_10  and  C_11
REMARK    8  A    between atoms: C_11  and  O_13
REMARK    9  A    between atoms: C_23  and  O_25
REMARK   10  A    between atoms: O_25  and  C_26
REMARK                            x       y       z     vdW  Elec       q    Type
REMARK                         _______ _______ _______ _____ _____    ______ ____
ROOT
ATOM      1  C   UNL     1     -31.094 -11.886  18.022  0.00  0.00    +0.017 C 
ATOM      2  C   UNL     1     -30.173 -11.297  18.814  0.00  0.00    -0.014 C 
ENDROOT
BRANCH   2   3
ATOM      3  C   UNL     1     -29.166 -12.126  19.526  0.00  0.00    +0.106 A 
ATOM      4  N   UNL     1     -27.849 -12.132  19.194  0.00  0.00    -0.239 NA
ATOM      5  C   UNL     1     -27.137 -12.966  19.995  0.00  0.00    +0.079 A 
ATOM      6  C   UNL     1     -25.762 -13.178  19.889  0.00  0.00    +0.029 A 
ATOM      7  C   UNL     1     -25.145 -14.070  20.783  0.00  0.00    +0.002 A 
ATOM      8  C   UNL     1     -25.906 -14.736  21.765  0.00  0.00    +0.001 A 
ATOM      9  C   UNL     1     -27.290 -14.514  21.863  0.00  0.00    +0.017 A 
ATOM     10  C   UNL     1     -27.874 -13.625  20.965  0.00  0.00    +0.040 A 
ATOM     11  S   UNL     1     -29.480 -13.164  20.837  0.00  0.00    -0.067 S 
ENDBRANCH   2   3
BRANCH   1  15
ATOM     12  C   UNL     1     -33.963  -9.684  15.716  0.00  0.00    +0.124 A 
ATOM     13  C   UNL     1     -32.779 -10.141  15.131  0.00  0.00    +0.046 A 
ATOM     14  C   UNL     1     -31.848 -10.859  15.882  0.00  0.00    +0.015 A 
ATOM     15  C   UNL     1     -32.095 -11.145  17.232  0.00  0.00    +0.017 A 
ATOM     16  C   UNL     1     -33.272 -10.678  17.844  0.00  0.00    +0.131 A 
ATOM     17  C   UNL     1     -34.207  -9.952  17.077  0.00  0.00    +0.091 A 
BRANCH  12  19
ATOM     18  C   UNL     1     -34.937  -7.548  14.853  0.00  0.00    +0.277 C 
ATOM     19  O   UNL     1     -34.867  -8.969  14.916  0.00  0.00    -0.495 OA
ENDBRANCH  12  19
BRANCH  16  20
ATOM     20  O   UNL     1     -33.484 -10.961  19.204  0.00  0.00    -0.494 OA
ATOM     21  C   UNL     1     -34.025 -10.042  20.146  0.00  0.00    +0.277 C 
ENDBRANCH  16  20
ENDBRANCH   1  15
BRANCH   2  22
ATOM     22  C   UNL     1     -30.052  -9.787  18.902  0.00  0.00    +0.049 C 
BRANCH  22  23
ATOM     23  C   UNL     1     -30.397  -9.299  20.312  0.00  0.00    +0.125 C 
BRANCH  23  24
ATOM     24  C   UNL     1     -30.682  -7.831  20.302  0.00  0.00    +0.305 C 
ATOM     25  O   UNL     1     -31.796  -7.406  19.895  0.00  0.00    -0.251 OA
BRANCH  24  26
ATOM     26  O   UNL     1     -29.730  -6.938  20.784  0.00  0.00    -0.481 OA
ATOM     27  H   UNL     1     -29.691  -6.702  21.769  0.00  0.00    +0.295 HD
ENDBRANCH  24  26
ENDBRANCH  23  24
ENDBRANCH  22  23
ENDBRANCH   2  22
TORSDOF 8
ENDMDL
MODEL 3
REMARK VINA RESULT:    -3.983      3.092      5.684
REMARK INTER + INTRA:          -6.896
REMARK INTER:                  -5.669
REMARK INTRA:                  -1.228
REMARK UNBOUND:                -1.166
REMARK  Name = 
REMARK  10 active torsions:
REMARK  status: ('A' for Active; 'I' for Inactive)
REMARK    1  A    between atoms: C_1  and  O_2
REMARK    2  A    between atoms: O_2  and  C_3
REMARK    3  A    between atoms: C_6  and  C_7
REMARK    4  A    between atoms: C_8  and  C_9
REMARK    5  A    between atoms: C_8  and  C_14
REMARK    6  A    between atoms: C_9  and  C_10
REMARK    7  A    between atoms: C_10  and  C_11
REMARK    8  A    between atoms: C_11  and  O_13
REMARK    9  A    between atoms: C_23  and  O_25
REMARK   10  A    between atoms: O_25  and  C_26
REMARK                            x       y       z     vdW  Elec       q    Type
REMARK                         _______ _______ _______ _____ _____    ______ ____
ROOT
ATOM      1  C   UNL     1     -32.026 -12.365  16.766  0.00  0.00    +0.017 C 
ATOM      2  C   UNL     1     -31.609 -11.202  17.309  0.00  0.00    -0.014 C 
ENDROOT
BRANCH   2   3
ATOM      3  C   UNL     1     -32.349 -10.609  18.453  0.00  0.00    +0.106 A 
ATOM      4  N   UNL     1     -32.829  -9.339  18.440  0.00  0.00    -0.239 NA
ATOM      5  C   UNL     1     -33.468  -9.036  19.599  0.00  0.00    +0.079 A 
ATOM      6  C   UNL     1     -34.062  -7.803  19.873  0.00  0.00    +0.029 A 
ATOM      7  C   UNL     1     -34.694  -7.619  21.115  0.00  0.00    +0.002 A 
ATOM      8  C   UNL     1     -34.723  -8.662  22.062  0.00  0.00    +0.001 A 
ATOM      9  C   UNL     1     -34.122  -9.899  21.775  0.00  0.00    +0.017 A 
ATOM     10  C   UNL     1     -33.504 -10.053  20.537  0.00  0.00    +0.040 A 
ATOM     11  S   UNL     1     -32.713 -11.394  19.918  0.00  0.00    -0.067 S 
ENDBRANCH   2   3
BRANCH   1  15
ATOM     12  C   UNL     1     -29.938 -14.346  13.586  0.00  0.00    +0.124 A 
ATOM     13  C   UNL     1     -29.511 -14.481  14.909  0.00  0.00    +0.046 A 
ATOM     14  C   UNL     1     -30.193 -13.837  15.943  0.00  0.00    +0.015 A 
ATOM     15  C   UNL     1     -31.325 -13.058  15.668  0.00  0.00    +0.017 A 
ATOM     16  C   UNL     1     -31.759 -12.895  14.340  0.00  0.00    +0.131 A 
ATOM     17  C   UNL     1     -31.063 -13.548  13.302  0.00  0.00    +0.091 A 
BRANCH  12  19
ATOM     18  C   UNL     1     -27.827 -14.839  12.337  0.00  0.00    +0.277 C 
ATOM     19  O   UNL     1     -29.218 -15.016  12.585  0.00  0.00    -0.495 OA
ENDBRANCH  12  19
BRANCH  16  20
ATOM     20  O   UNL     1     -32.884 -12.091  14.091  0.00  0.00    -0.494 OA
ATOM     21  C   UNL     1     -33.778 -12.267  12.998  0.00  0.00    +0.277 C 
ENDBRANCH  16  20
ENDBRANCH   1  15
BRANCH   2  22
ATOM     22  C   UNL     1     -30.319 -10.536  16.866  0.00  0.00    +0.049 C 
BRANCH  22  23
ATOM     23  C   UNL     1     -29.450 -10.182  18.075  0.00  0.00    +0.125 C 
BRANCH  23  24
ATOM     24  C   UNL     1     -28.456 -11.268  18.341  0.00  0.00    +0.305 C 
ATOM     25  O   UNL     1     -27.245 -11.107  18.029  0.00  0.00    -0.251 OA
BRANCH  24  26
ATOM     26  O   UNL     1     -28.863 -12.439  18.972  0.00  0.00    -0.481 OA
ATOM     27  H   UNL     1     -29.752 -12.868  18.746  0.00  0.00    +0.295 HD
ENDBRANCH  24  26
ENDBRANCH  23  24
ENDBRANCH  22  23
ENDBRANCH   2  22
TORSDOF 8
ENDMDL
MODEL 4
REMARK VINA RESULT:    -3.878      3.280      5.728
REMARK INTER + INTRA:          -6.744
REMARK INTER:                  -5.377
REMARK INTRA:                  -1.368
REMARK UNBOUND:                -1.166
REMARK  Name = 
REMARK  10 active torsions:
REMARK  status: ('A' for Active; 'I' for Inactive)
REMARK    1  A    between atoms: C_1  and  O_2
REMARK    2  A    between atoms: O_2  and  C_3
REMARK    3  A    between atoms: C_6  and  C_7
REMARK    4  A    between atoms: C_8  and  C_9
REMARK    5  A    between atoms: C_8  and  C_14
REMARK    6  A    between atoms: C_9  and  C_10
REMARK    7  A    between atoms: C_10  and  C_11
REMARK    8  A    between atoms: C_11  and  O_13
REMARK    9  A    between atoms: C_23  and  O_25
REMARK   10  A    between atoms: O_25  and  C_26
REMARK                            x       y       z     vdW  Elec       q    Type
REMARK                         _______ _______ _______ _____ _____    ______ ____
ROOT
ATOM      1  C   UNL     1     -31.016 -10.440  16.984  0.00  0.00    +0.017 C 
ATOM      2  C   UNL     1     -31.759 -10.392  18.110  0.00  0.00    -0.014 C 
ENDROOT
BRANCH   2   3
ATOM      3  C   UNL     1     -31.870  -9.122  18.873  0.00  0.00    +0.106 A 
ATOM      4  N   UNL     1     -30.880  -8.659  19.679  0.00  0.00    -0.239 NA
ATOM      5  C   UNL     1     -31.222  -7.480  20.261  0.00  0.00    +0.079 A 
ATOM      6  C   UNL     1     -30.404  -6.769  21.139  0.00  0.00    +0.029 A 
ATOM      7  C   UNL     1     -30.880  -5.558  21.674  0.00  0.00    +0.002 A 
ATOM      8  C   UNL     1     -32.158  -5.078  21.325  0.00  0.00    +0.001 A 
ATOM      9  C   UNL     1     -32.972  -5.803  20.440  0.00  0.00    +0.017 A 
ATOM     10  C   UNL     1     -32.476  -6.998  19.926  0.00  0.00    +0.040 A 
ATOM     11  S   UNL     1     -33.205  -8.068  18.862  0.00  0.00    -0.067 S 
ENDBRANCH   2   3
BRANCH   1  15
ATOM     12  C   UNL     1     -30.595 -13.906  14.493  0.00  0.00    +0.124 A 
ATOM     13  C   UNL     1     -29.874 -13.794  15.683  0.00  0.00    +0.046 A 
ATOM     14  C   UNL     1     -30.013 -12.667  16.493  0.00  0.00    +0.015 A 
ATOM     15  C   UNL     1     -30.893 -11.637  16.130  0.00  0.00    +0.017 A 
ATOM     16  C   UNL     1     -31.614 -11.723  14.926  0.00  0.00    +0.131 A 
ATOM     17  C   UNL     1     -31.465 -12.866  14.113  0.00  0.00    +0.091 A 
BRANCH  12  19
ATOM     18  C   UNL     1     -29.998 -15.061  12.356  0.00  0.00    +0.277 C 
ATOM     19  O   UNL     1     -30.420 -15.062  13.716  0.00  0.00    -0.495 OA
ENDBRANCH  12  19
BRANCH  16  20
ATOM     20  O   UNL     1     -32.472 -10.667  14.577  0.00  0.00    -0.494 OA
ATOM     21  C   UNL     1     -33.885 -10.780  14.450  0.00  0.00    +0.277 C 
ENDBRANCH  16  20
ENDBRANCH   1  15
BRANCH   2  22
ATOM     22  C   UNL     1     -32.596 -11.575  18.559  0.00  0.00    +0.049 C 
BRANCH  22  23
ATOM     23  C   UNL     1     -32.335 -11.893  20.034  0.00  0.00    +0.125 C 
BRANCH  23  24
ATOM     24  C   UNL     1     -31.053 -12.649  20.187  0.00  0.00    +0.305 C 
ATOM     25  O   UNL     1     -30.053 -12.097  20.718  0.00  0.00    -0.251 OA
BRANCH  24  26
ATOM     26  O   UNL     1     -30.982 -13.978  19.781  0.00  0.00    -0.481 OA
ATOM     27  H   UNL     1     -31.747 -14.617  19.962  0.00  0.00    +0.295 HD
ENDBRANCH  24  26
ENDBRANCH  23  24
ENDBRANCH  22  23
ENDBRANCH   2  22
TORSDOF 8
ENDMDL
MODEL 5
REMARK VINA RESULT:    -3.787      3.328      5.799
REMARK INTER + INTRA:          -6.613
REMARK INTER:                  -5.268
REMARK INTRA:                  -1.345
REMARK UNBOUND:                -1.166
REMARK  Name = 
REMARK  10 active torsions:
REMARK  status: ('A' for Active; 'I' for Inactive)
REMARK    1  A    between atoms: C_1  and  O_2
REMARK    2  A    between atoms: O_2  and  C_3
REMARK    3  A    between atoms: C_6  and  C_7
REMARK    4  A    between atoms: C_8  and  C_9
REMARK    5  A    between atoms: C_8  and  C_14
REMARK    6  A    between atoms: C_9  and  C_10
REMARK    7  A    between atoms: C_10  and  C_11
REMARK    8  A    between atoms: C_11  and  O_13
REMARK    9  A    between atoms: C_23  and  O_25
REMARK   10  A    between atoms: O_25  and  C_26
REMARK                            x       y       z     vdW  Elec       q    Type
REMARK                         _______ _______ _______ _____ _____    ______ ____
ROOT
ATOM      1  C   UNL     1     -30.717 -10.461  17.325  0.00  0.00    +0.017 C 
ATOM      2  C   UNL     1     -31.589 -10.385  18.352  0.00  0.00    -0.014 C 
ENDROOT
BRANCH   2   3
ATOM      3  C   UNL     1     -31.732  -9.118  19.114  0.00  0.00    +0.106 A 
ATOM      4  N   UNL     1     -30.764  -8.643  19.941  0.00  0.00    -0.239 NA
ATOM      5  C   UNL     1     -31.134  -7.469  20.517  0.00  0.00    +0.079 A 
ATOM      6  C   UNL     1     -30.343  -6.748  21.413  0.00  0.00    +0.029 A 
ATOM      7  C   UNL     1     -30.845  -5.545  21.938  0.00  0.00    +0.002 A 
ATOM      8  C   UNL     1     -32.122  -5.080  21.563  0.00  0.00    +0.001 A 
ATOM      9  C   UNL     1     -32.908  -5.814  20.660  0.00  0.00    +0.017 A 
ATOM     10  C   UNL     1     -32.386  -7.002  20.156  0.00  0.00    +0.040 A 
ATOM     11  S   UNL     1     -33.079  -8.080  19.076  0.00  0.00    -0.067 S 
ENDBRANCH   2   3
BRANCH   1  15
ATOM     12  C   UNL     1     -30.284 -13.946  14.863  0.00  0.00    +0.124 A 
ATOM     13  C   UNL     1     -31.091 -12.882  14.454  0.00  0.00    +0.046 A 
ATOM     14  C   UNL     1     -31.229 -11.749  15.255  0.00  0.00    +0.015 A 
ATOM     15  C   UNL     1     -30.547 -11.656  16.476  0.00  0.00    +0.017 A 
ATOM     16  C   UNL     1     -29.744 -12.724  16.914  0.00  0.00    +0.131 A 
ATOM     17  C   UNL     1     -29.611 -13.867  16.098  0.00  0.00    +0.091 A 
BRANCH  12  19
ATOM     18  C   UNL     1     -30.089 -14.993  12.599  0.00  0.00    +0.277 C 
ATOM     19  O   UNL     1     -30.177 -15.063  14.019  0.00  0.00    -0.495 OA
ENDBRANCH  12  19
BRANCH  16  20
ATOM     20  O   UNL     1     -29.089 -12.612  18.151  0.00  0.00    -0.494 OA
ATOM     21  C   UNL     1     -27.862 -11.921  18.358  0.00  0.00    +0.277 C 
ENDBRANCH  16  20
ENDBRANCH   1  15
BRANCH   2  22
ATOM     22  C   UNL     1     -32.530 -11.529  18.679  0.00  0.00    +0.049 C 
BRANCH  22  23
ATOM     23  C   UNL     1     -32.463 -11.876  20.169  0.00  0.00    +0.125 C 
BRANCH  23  24
ATOM     24  C   UNL     1     -31.189 -12.596  20.481  0.00  0.00    +0.305 C 
ATOM     25  O   UNL     1     -30.343 -12.075  21.257  0.00  0.00    -0.251 OA
BRANCH  24  26
ATOM     26  O   UNL     1     -30.961 -13.861  19.949  0.00  0.00    -0.481 OA
ATOM     27  H   UNL     1     -31.389 -14.682  20.360  0.00  0.00    +0.295 HD
ENDBRANCH  24  26
ENDBRANCH  23  24
ENDBRANCH  22  23
ENDBRANCH   2  22
TORSDOF 8
ENDMDL
MODEL 6
REMARK VINA RESULT:    -3.692      3.852      6.497
REMARK INTER + INTRA:          -6.478
REMARK INTER:                  -5.262
REMARK INTRA:                  -1.216
REMARK UNBOUND:                -1.166
REMARK  Name = 
REMARK  10 active torsions:
REMARK  status: ('A' for Active; 'I' for Inactive)
REMARK    1  A    between atoms: C_1  and  O_2
REMARK    2  A    between atoms: O_2  and  C_3
REMARK    3  A    between atoms: C_6  and  C_7
REMARK    4  A    between atoms: C_8  and  C_9
REMARK    5  A    between atoms: C_8  and  C_14
REMARK    6  A    between atoms: C_9  and  C_10
REMARK    7  A    between atoms: C_10  and  C_11
REMARK    8  A    between atoms: C_11  and  O_13
REMARK    9  A    between atoms: C_23  and  O_25
REMARK   10  A    between atoms: O_25  and  C_26
REMARK                            x       y       z     vdW  Elec       q    Type
REMARK                         _______ _______ _______ _____ _____    ______ ____
ROOT
ATOM      1  C   UNL     1     -33.237 -10.493  17.230  0.00  0.00    +0.017 C 
ATOM      2  C   UNL     1     -32.001 -10.521  16.689  0.00  0.00    -0.014 C 
ENDROOT
BRANCH   2   3
ATOM      3  C   UNL     1     -31.670 -11.523  15.643  0.00  0.00    +0.106 A 
ATOM      4  N   UNL     1     -30.704 -12.464  15.804  0.00  0.00    -0.239 NA
ATOM      5  C   UNL     1     -30.597 -13.260  14.709  0.00  0.00    +0.079 A 
ATOM      6  C   UNL     1     -29.690 -14.313  14.586  0.00  0.00    +0.029 A 
ATOM      7  C   UNL     1     -29.682 -15.062  13.396  0.00  0.00    +0.002 A 
ATOM      8  C   UNL     1     -30.575 -14.751  12.351  0.00  0.00    +0.001 A 
ATOM      9  C   UNL     1     -31.484 -13.689  12.486  0.00  0.00    +0.017 A 
ATOM     10  C   UNL     1     -31.470 -12.965  13.675  0.00  0.00    +0.040 A 
ATOM     11  S   UNL     1     -32.423 -11.661  14.123  0.00  0.00    -0.067 S 
ENDBRANCH   2   3
BRANCH   1  15
ATOM     12  C   UNL     1     -34.467  -7.569  20.117  0.00  0.00    +0.124 A 
ATOM     13  C   UNL     1     -34.640  -7.337  18.751  0.00  0.00    +0.046 A 
ATOM     14  C   UNL     1     -34.241  -8.290  17.813  0.00  0.00    +0.015 A 
ATOM     15  C   UNL     1     -33.674  -9.502  18.232  0.00  0.00    +0.017 A 
ATOM     16  C   UNL     1     -33.475  -9.747  19.602  0.00  0.00    +0.131 A 
ATOM     17  C   UNL     1     -33.880  -8.777  20.542  0.00  0.00    +0.091 A 
BRANCH  12  19
ATOM     18  C   UNL     1     -34.009  -5.749  21.771  0.00  0.00    +0.277 C 
ATOM     19  O   UNL     1     -34.888  -6.579  21.018  0.00  0.00    -0.495 OA
ENDBRANCH  12  19
BRANCH  16  20
ATOM     20  O   UNL     1     -32.885 -10.961  19.991  0.00  0.00    -0.494 OA
ATOM     21  C   UNL     1     -32.373 -11.231  21.291  0.00  0.00    +0.277 C 
ENDBRANCH  16  20
ENDBRANCH   1  15
BRANCH   2  22
ATOM     22  C   UNL     1     -30.962  -9.468  17.028  0.00  0.00    +0.049 C 
BRANCH  22  23
ATOM     23  C   UNL     1     -29.666 -10.124  17.514  0.00  0.00    +0.125 C 
BRANCH  23  24
ATOM     24  C   UNL     1     -29.562 -10.036  19.003  0.00  0.00    +0.305 C 
ATOM     25  O   UNL     1     -29.841  -8.958  19.594  0.00  0.00    -0.251 OA
BRANCH  24  26
ATOM     26  O   UNL     1     -29.201 -11.160  19.739  0.00  0.00    -0.481 OA
ATOM     27  H   UNL     1     -28.244 -11.493  19.741  0.00  0.00    +0.295 HD
ENDBRANCH  24  26
ENDBRANCH  23  24
ENDBRANCH  22  23
ENDBRANCH   2  22
TORSDOF 8
ENDMDL
MODEL 7
REMARK VINA RESULT:    -3.631      3.527      5.972
REMARK INTER + INTRA:          -6.390
REMARK INTER:                  -4.865
REMARK INTRA:                  -1.526
REMARK UNBOUND:                -1.166
REMARK  Name = 
REMARK  10 active torsions:
REMARK  status: ('A' for Active; 'I' for Inactive)
REMARK    1  A    between atoms: C_1  and  O_2
REMARK    2  A    between atoms: O_2  and  C_3
REMARK    3  A    between atoms: C_6  and  C_7
REMARK    4  A    between atoms: C_8  and  C_9
REMARK    5  A    between atoms: C_8  and  C_14
REMARK    6  A    between atoms: C_9  and  C_10
REMARK    7  A    between atoms: C_10  and  C_11
REMARK    8  A    between atoms: C_11  and  O_13
REMARK    9  A    between atoms: C_23  and  O_25
REMARK   10  A    between atoms: O_25  and  C_26
REMARK                            x       y       z     vdW  Elec       q    Type
REMARK                         _______ _______ _______ _____ _____    ______ ____
ROOT
ATOM      1  C   UNL     1     -32.877 -11.217  16.483  0.00  0.00    +0.017 C 
ATOM      2  C   UNL     1     -32.244 -10.214  17.127  0.00  0.00    -0.014 C 
ENDROOT
BRANCH   2   3
ATOM      3  C   UNL     1     -32.913  -9.514  18.253  0.00  0.00    +0.106 A 
ATOM      4  N   UNL     1     -33.346  -8.229  18.169  0.00  0.00    -0.239 NA
ATOM      5  C   UNL     1     -33.925  -7.822  19.328  0.00  0.00    +0.079 A 
ATOM      6  C   UNL     1     -34.461  -6.551  19.537  0.00  0.00    +0.029 A 
ATOM      7  C   UNL     1     -35.033  -6.256  20.786  0.00  0.00    +0.002 A 
ATOM      8  C   UNL     1     -35.062  -7.230  21.805  0.00  0.00    +0.001 A 
ATOM      9  C   UNL     1     -34.520  -8.506  21.583  0.00  0.00    +0.017 A 
ATOM     10  C   UNL     1     -33.960  -8.770  20.336  0.00  0.00    +0.040 A 
ATOM     11  S   UNL     1     -33.245 -10.181  19.783  0.00  0.00    -0.067 S 
ENDBRANCH   2   3
BRANCH   1  15
ATOM     12  C   UNL     1     -31.179 -13.530  13.295  0.00  0.00    +0.124 A 
ATOM     13  C   UNL     1     -32.024 -12.453  13.020  0.00  0.00    +0.046 A 
ATOM     14  C   UNL     1     -32.574 -11.700  14.058  0.00  0.00    +0.015 A 
ATOM     15  C   UNL     1     -32.273 -12.006  15.393  0.00  0.00    +0.017 A 
ATOM     16  C   UNL     1     -31.439 -13.099  15.690  0.00  0.00    +0.131 A 
ATOM     17  C   UNL     1     -30.889 -13.855  14.635  0.00  0.00    +0.091 A 
BRANCH  12  19
ATOM     18  C   UNL     1     -29.481 -15.062  12.282  0.00  0.00    +0.277 C 
ATOM     19  O   UNL     1     -30.650 -14.253  12.214  0.00  0.00    -0.495 OA
ENDBRANCH  12  19
BRANCH  16  20
ATOM     20  O   UNL     1     -31.171 -13.396  17.037  0.00  0.00    -0.494 OA
ATOM     21  C   UNL     1     -31.109 -14.710  17.579  0.00  0.00    +0.277 C 
ENDBRANCH  16  20
ENDBRANCH   1  15
BRANCH   2  22
ATOM     22  C   UNL     1     -30.802  -9.856  16.814  0.00  0.00    +0.049 C 
BRANCH  22  23
ATOM     23  C   UNL     1     -29.970  -9.796  18.098  0.00  0.00    +0.125 C 
BRANCH  23  24
ATOM     24  C   UNL     1     -28.894 -10.835  18.073  0.00  0.00    +0.305 C 
ATOM     25  O   UNL     1     -27.705 -10.508  17.816  0.00  0.00    -0.251 OA
BRANCH  24  26
ATOM     26  O   UNL     1     -29.203 -12.157  18.377  0.00  0.00    -0.481 OA
ATOM     27  H   UNL     1     -29.363 -12.445  19.336  0.00  0.00    +0.295 HD
ENDBRANCH  24  26
ENDBRANCH  23  24
ENDBRANCH  22  23
ENDBRANCH   2  22
TORSDOF 8
ENDMDL
