MODEL 1
REMARK VINA RESULT:    -4.557      0.000      0.000
REMARK INTER + INTRA:          -6.941
REMARK INTER:                  -6.288
REMARK INTRA:                  -0.653
REMARK UNBOUND:                -0.653
REMARK  Name = 
REMARK  10 active torsions:
REMARK  status: ('A' for Active; 'I' for Inactive)
REMARK    1  A    between atoms: C_1  and  C_2
REMARK    2  A    between atoms: C_2  and  C_3
REMARK    3  A    between atoms: C_2  and  C_4
REMARK    4  A    between atoms: C_2  and  C_5
REMARK    5  A    between atoms: C_7  and  C_10
REMARK    6  A    between atoms: N_12  and  C_13
REMARK    7  A    between atoms: C_13  and  C_14
REMARK    8  A    between atoms: C_13  and  C_18
REMARK    9  A    between atoms: C_14  and  C_15
REMARK   10  A    between atoms: C_15  and  O_17
REMARK                            x       y       z     vdW  Elec       q    Type
REMARK                         _______ _______ _______ _____ _____    ______ ____
ROOT
ATOM      1  C   UNL     1     -30.826 -10.726  17.122  0.00  0.00    +0.266 C 
ATOM      2  O   UNL     1     -30.353 -10.414  15.997  0.00  0.00    -0.268 OA
ATOM      3  N   UNL     1     -31.364 -12.041  17.344  0.00  0.00    -0.303 N 
ATOM      4  H   UNL     1     -31.669 -12.303  18.307  0.00  0.00    +0.150 HD
ENDROOT
BRANCH   1   7
ATOM      5  C   UNL     1     -31.294  -8.153  19.624  0.00  0.00    +0.143 A 
ATOM      6  C   UNL     1     -31.840  -8.898  18.596  0.00  0.00    +0.081 A 
ATOM      7  C   UNL     1     -30.804  -9.721  18.200  0.00  0.00    +0.168 A 
ATOM      8  N   UNL     1     -29.715  -9.465  18.952  0.00  0.00    -0.073 NA
ATOM      9  O   UNL     1     -30.044  -8.525  19.791  0.00  0.00    -0.358 OA
BRANCH   5  11
ATOM     10  C   UNL     1     -32.633  -7.707  21.680  0.00  0.00    +0.019 C 
ATOM     11  C   UNL     1     -31.993  -7.075  20.430  0.00  0.00    +0.023 C 
ATOM     12  C   UNL     1     -33.094  -6.410  19.580  0.00  0.00    +0.019 C 
ATOM     13  C   UNL     1     -30.970  -6.004  20.855  0.00  0.00    +0.019 C 
ENDBRANCH   5  11
ENDBRANCH   1   7
BRANCH   3  14
ATOM     14  C   UNL     1     -31.549 -13.053  16.297  0.00  0.00    +0.114 C 
BRANCH  14  15
ATOM     15  C   UNL     1     -32.423 -12.504  15.176  0.00  0.00    -0.027 A 
ATOM     16  C   UNL     1     -32.066 -12.786  13.844  0.00  0.00    +0.008 A 
ATOM     17  C   UNL     1     -32.862 -12.341  12.784  0.00  0.00    +0.038 A 
ATOM     18  C   UNL     1     -34.027 -11.616  13.038  0.00  0.00    +0.123 A 
ATOM     19  F   UNL     1     -34.797 -11.185  12.008  0.00  0.00    -0.205 F 
ATOM     20  C   UNL     1     -34.405 -11.344  14.354  0.00  0.00    +0.038 A 
ATOM     21  C   UNL     1     -33.614 -11.787  15.419  0.00  0.00    +0.008 A 
ENDBRANCH  14  15
BRANCH  14  22
ATOM     22  C   UNL     1     -30.195 -13.651  15.858  0.00  0.00    +0.147 C 
BRANCH  22  23
ATOM     23  C   UNL     1     -29.304 -13.917  17.035  0.00  0.00    +0.307 C 
ATOM     24  O   UNL     1     -28.086 -13.596  16.994  0.00  0.00    -0.251 OA
BRANCH  23  25
ATOM     25  O   UNL     1     -29.817 -14.550  18.163  0.00  0.00    -0.481 OA
ATOM     26  H   UNL     1     -30.727 -14.995  18.139  0.00  0.00    +0.295 HD
ENDBRANCH  23  25
ENDBRANCH  22  23
ENDBRANCH  14  22
ENDBRANCH   3  14
TORSDOF 7
ENDMDL
MODEL 2
REMARK VINA RESULT:    -4.546      2.929      3.694
REMARK INTER + INTRA:          -6.927
REMARK INTER:                  -6.276
REMARK INTRA:                  -0.650
REMARK UNBOUND:                -0.653
REMARK  Name = 
REMARK  10 active torsions:
REMARK  status: ('A' for Active; 'I' for Inactive)
REMARK    1  A    between atoms: C_1  and  C_2
REMARK    2  A    between atoms: C_2  and  C_3
REMARK    3  A    between atoms: C_2  and  C_4
REMARK    4  A    between atoms: C_2  and  C_5
REMARK    5  A    between atoms: C_7  and  C_10
REMARK    6  A    between atoms: N_12  and  C_13
REMARK    7  A    between atoms: C_13  and  C_14
REMARK    8  A    between atoms: C_13  and  C_18
REMARK    9  A    between atoms: C_14  and  C_15
REMARK   10  A    between atoms: C_15  and  O_17
REMARK                            x       y       z     vdW  Elec       q    Type
REMARK                         _______ _______ _______ _____ _____    ______ ____
ROOT
ATOM      1  C   UNL     1     -29.719 -10.399  19.159  0.00  0.00    +0.266 C 
ATOM      2  O   UNL     1     -28.842 -10.291  18.262  0.00  0.00    -0.268 OA
ATOM      3  N   UNL     1     -29.889 -11.642  19.863  0.00  0.00    -0.303 N 
ATOM      4  H   UNL     1     -30.562 -11.681  20.660  0.00  0.00    +0.150 HD
ENDROOT
BRANCH   1   7
ATOM      5  C   UNL     1     -32.169  -7.781  19.653  0.00  0.00    +0.143 A 
ATOM      6  C   UNL     1     -31.878  -9.028  19.132  0.00  0.00    +0.081 A 
ATOM      7  C   UNL     1     -30.554  -9.227  19.473  0.00  0.00    +0.168 A 
ATOM      8  N   UNL     1     -30.101  -8.154  20.151  0.00  0.00    -0.073 NA
ATOM      9  O   UNL     1     -31.090  -7.313  20.240  0.00  0.00    -0.358 OA
BRANCH   5  11
ATOM     10  C   UNL     1     -33.239  -5.538  19.450  0.00  0.00    +0.019 C 
ATOM     11  C   UNL     1     -33.495  -7.052  19.566  0.00  0.00    +0.023 C 
ATOM     12  C   UNL     1     -34.334  -7.326  20.831  0.00  0.00    +0.019 C 
ATOM     13  C   UNL     1     -34.275  -7.544  18.332  0.00  0.00    +0.019 C 
ENDBRANCH   5  11
ENDBRANCH   1   7
BRANCH   3  14
ATOM     14  C   UNL     1     -29.198 -12.893  19.525  0.00  0.00    +0.114 C 
BRANCH  14  15
ATOM     15  C   UNL     1     -29.690 -13.425  18.184  0.00  0.00    -0.027 A 
ATOM     16  C   UNL     1     -28.766 -13.549  17.130  0.00  0.00    +0.008 A 
ATOM     17  C   UNL     1     -29.161 -14.074  15.896  0.00  0.00    +0.038 A 
ATOM     18  C   UNL     1     -30.479 -14.489  15.699  0.00  0.00    +0.123 A 
ATOM     19  F   UNL     1     -30.860 -14.997  14.501  0.00  0.00    -0.205 F 
ATOM     20  C   UNL     1     -31.403 -14.389  16.741  0.00  0.00    +0.038 A 
ATOM     21  C   UNL     1     -31.014 -13.866  17.979  0.00  0.00    +0.008 A 
ENDBRANCH  14  15
BRANCH  14  22
ATOM     22  C   UNL     1     -27.668 -12.736  19.663  0.00  0.00    +0.147 C 
BRANCH  22  23
ATOM     23  C   UNL     1     -27.087 -13.780  20.569  0.00  0.00    +0.307 C 
ATOM     24  O   UNL     1     -26.063 -13.524  21.258  0.00  0.00    -0.251 OA
BRANCH  23  25
ATOM     25  O   UNL     1     -27.663 -15.045  20.625  0.00  0.00    -0.481 OA
ATOM     26  H   UNL     1     -27.114 -15.854  20.892  0.00  0.00    +0.295 HD
ENDBRANCH  23  25
ENDBRANCH  22  23
ENDBRANCH  14  22
ENDBRANCH   3  14
TORSDOF 7
ENDMDL
MODEL 3
REMARK VINA RESULT:    -4.496      2.650      3.372
REMARK INTER + INTRA:          -6.857
REMARK INTER:                  -5.635
REMARK INTRA:                  -1.222
REMARK UNBOUND:                -0.653
REMARK  Name = 
REMARK  10 active torsions:
REMARK  status: ('A' for Active; 'I' for Inactive)
REMARK    1  A    between atoms: C_1  and  C_2
REMARK    2  A    between atoms: C_2  and  C_3
REMARK    3  A    between atoms: C_2  and  C_4
REMARK    4  A    between atoms: C_2  and  C_5
REMARK    5  A    between atoms: C_7  and  C_10
REMARK    6  A    between atoms: N_12  and  C_13
REMARK    7  A    between atoms: C_13  and  C_14
REMARK    8  A    between atoms: C_13  and  C_18
REMARK    9  A    between atoms: C_14  and  C_15
REMARK   10  A    between atoms: C_15  and  O_17
REMARK                            x       y       z     vdW  Elec       q    Type
REMARK                         _______ _______ _______ _____ _____    ______ ____
ROOT
ATOM      1  C   UNL     1     -31.443 -12.209  19.460  0.00  0.00    +0.266 C 
ATOM      2  O   UNL     1     -31.190 -13.118  20.294  0.00  0.00    -0.268 OA
ATOM      3  N   UNL     1     -30.845 -12.237  18.152  0.00  0.00    -0.303 N 
ATOM      4  H   UNL     1     -31.138 -11.522  17.450  0.00  0.00    +0.150 HD
ENDROOT
BRANCH   1   7
ATOM      5  C   UNL     1     -33.427  -9.244  20.071  0.00  0.00    +0.143 A 
ATOM      6  C   UNL     1     -32.382  -9.831  19.382  0.00  0.00    +0.081 A 
ATOM      7  C   UNL     1     -32.368 -11.131  19.850  0.00  0.00    +0.168 A 
ATOM      8  N   UNL     1     -33.347 -11.289  20.763  0.00  0.00    -0.073 NA
ATOM      9  O   UNL     1     -33.958 -10.145  20.869  0.00  0.00    -0.358 OA
BRANCH   5  11
ATOM     10  C   UNL     1     -34.799  -7.464  21.151  0.00  0.00    +0.019 C 
ATOM     11  C   UNL     1     -33.893  -7.806  19.953  0.00  0.00    +0.023 C 
ATOM     12  C   UNL     1     -34.690  -7.614  18.646  0.00  0.00    +0.019 C 
ATOM     13  C   UNL     1     -32.672  -6.868  19.939  0.00  0.00    +0.019 C 
ENDBRANCH   5  11
ENDBRANCH   1   7
BRANCH   3  14
ATOM     14  C   UNL     1     -29.814 -13.192  17.727  0.00  0.00    +0.114 C 
BRANCH  14  15
ATOM     15  C   UNL     1     -30.024 -13.588  16.271  0.00  0.00    -0.027 A 
ATOM     16  C   UNL     1     -31.051 -12.957  15.544  0.00  0.00    +0.008 A 
ATOM     17  C   UNL     1     -31.253 -13.255  14.193  0.00  0.00    +0.038 A 
ATOM     18  C   UNL     1     -30.431 -14.180  13.548  0.00  0.00    +0.123 A 
ATOM     19  F   UNL     1     -30.630 -14.469  12.238  0.00  0.00    -0.205 F 
ATOM     20  C   UNL     1     -29.397 -14.801  14.251  0.00  0.00    +0.038 A 
ATOM     21  C   UNL     1     -29.188 -14.506  15.602  0.00  0.00    +0.008 A 
ENDBRANCH  14  15
BRANCH  14  22
ATOM     22  C   UNL     1     -28.402 -12.678  18.084  0.00  0.00    +0.147 C 
BRANCH  22  23
ATOM     23  C   UNL     1     -27.830 -13.412  19.261  0.00  0.00    +0.307 C 
ATOM     24  O   UNL     1     -26.622 -13.253  19.582  0.00  0.00    -0.251 OA
BRANCH  23  25
ATOM     25  O   UNL     1     -28.629 -14.296  19.979  0.00  0.00    -0.481 OA
ATOM     26  H   UNL     1     -28.600 -14.317  20.991  0.00  0.00    +0.295 HD
ENDBRANCH  23  25
ENDBRANCH  22  23
ENDBRANCH  14  22
ENDBRANCH   3  14
TORSDOF 7
ENDMDL
MODEL 4
REMARK VINA RESULT:    -4.339      3.904      7.815
REMARK INTER + INTRA:          -6.640
REMARK INTER:                  -5.326
REMARK INTRA:                  -1.314
REMARK UNBOUND:                -0.653
REMARK  Name = 
REMARK  10 active torsions:
REMARK  status: ('A' for Active; 'I' for Inactive)
REMARK    1  A    between atoms: C_1  and  C_2
REMARK    2  A    between atoms: C_2  and  C_3
REMARK    3  A    between atoms: C_2  and  C_4
REMARK    4  A    between atoms: C_2  and  C_5
REMARK    5  A    between atoms: C_7  and  C_10
REMARK    6  A    between atoms: N_12  and  C_13
REMARK    7  A    between atoms: C_13  and  C_14
REMARK    8  A    between atoms: C_13  and  C_18
REMARK    9  A    between atoms: C_14  and  C_15
REMARK   10  A    between atoms: C_15  and  O_17
REMARK                            x       y       z     vdW  Elec       q    Type
REMARK                         _______ _______ _______ _____ _____    ______ ____
ROOT
ATOM      1  C   UNL     1     -30.789 -13.832  17.446  0.00  0.00    +0.266 C 
ATOM      2  O   UNL     1     -31.091 -14.914  18.015  0.00  0.00    -0.268 OA
ATOM      3  N   UNL     1     -30.245 -12.739  18.208  0.00  0.00    -0.303 N 
ATOM      4  H   UNL     1     -29.922 -11.886  17.701  0.00  0.00    +0.150 HD
ENDROOT
BRANCH   1   7
ATOM      5  C   UNL     1     -31.752 -13.269  14.003  0.00  0.00    +0.143 A 
ATOM      6  C   UNL     1     -32.025 -13.064  15.343  0.00  0.00    +0.081 A 
ATOM      7  C   UNL     1     -30.995 -13.718  15.992  0.00  0.00    +0.168 A 
ATOM      8  N   UNL     1     -30.173 -14.274  15.081  0.00  0.00    -0.073 NA
ATOM      9  O   UNL     1     -30.654 -13.986  13.907  0.00  0.00    -0.358 OA
BRANCH   5  11
ATOM     10  C   UNL     1     -33.018 -13.972  11.974  0.00  0.00    +0.019 C 
ATOM     11  C   UNL     1     -32.570 -12.772  12.827  0.00  0.00    +0.023 C 
ATOM     12  C   UNL     1     -31.722 -11.822  11.957  0.00  0.00    +0.019 C 
ATOM     13  C   UNL     1     -33.805 -12.010  13.344  0.00  0.00    +0.019 C 
ENDBRANCH   5  11
ENDBRANCH   1   7
BRANCH   3  14
ATOM     14  C   UNL     1     -30.133 -12.717  19.671  0.00  0.00    +0.114 C 
BRANCH  14  15
ATOM     15  C   UNL     1     -28.725 -13.107  20.102  0.00  0.00    -0.027 A 
ATOM     16  C   UNL     1     -28.572 -13.942  21.225  0.00  0.00    +0.008 A 
ATOM     17  C   UNL     1     -27.302 -14.363  21.631  0.00  0.00    +0.038 A 
ATOM     18  C   UNL     1     -26.169 -13.964  20.920  0.00  0.00    +0.123 A 
ATOM     19  F   UNL     1     -24.939 -14.372  21.317  0.00  0.00    -0.205 F 
ATOM     20  C   UNL     1     -26.306 -13.150  19.794  0.00  0.00    +0.038 A 
ATOM     21  C   UNL     1     -27.574 -12.727  19.381  0.00  0.00    +0.008 A 
ENDBRANCH  14  15
BRANCH  14  22
ATOM     22  C   UNL     1     -30.666 -11.387  20.248  0.00  0.00    +0.147 C 
BRANCH  22  23
ATOM     23  C   UNL     1     -30.464 -10.251  19.289  0.00  0.00    +0.307 C 
ATOM     24  O   UNL     1     -31.091 -10.224  18.196  0.00  0.00    -0.251 OA
BRANCH  23  25
ATOM     25  O   UNL     1     -29.556  -9.242  19.594  0.00  0.00    -0.481 OA
ATOM     26  H   UNL     1     -28.812  -9.001  18.950  0.00  0.00    +0.295 HD
ENDBRANCH  23  25
ENDBRANCH  22  23
ENDBRANCH  14  22
ENDBRANCH   3  14
TORSDOF 7
ENDMDL
MODEL 5
REMARK VINA RESULT:    -4.258      2.720      3.535
REMARK INTER + INTRA:          -6.529
REMARK INTER:                  -5.325
REMARK INTRA:                  -1.204
REMARK UNBOUND:                -0.653
REMARK  Name = 
REMARK  10 active torsions:
REMARK  status: ('A' for Active; 'I' for Inactive)
REMARK    1  A    between atoms: C_1  and  C_2
REMARK    2  A    between atoms: C_2  and  C_3
REMARK    3  A    between atoms: C_2  and  C_4
REMARK    4  A    between atoms: C_2  and  C_5
REMARK    5  A    between atoms: C_7  and  C_10
REMARK    6  A    between atoms: N_12  and  C_13
REMARK    7  A    between atoms: C_13  and  C_14
REMARK    8  A    between atoms: C_13  and  C_18
REMARK    9  A    between atoms: C_14  and  C_15
REMARK   10  A    between atoms: C_15  and  O_17
REMARK                            x       y       z     vdW  Elec       q    Type
REMARK                         _______ _______ _______ _____ _____    ______ ____
ROOT
ATOM      1  C   UNL     1     -33.220 -11.803  16.833  0.00  0.00    +0.266 C 
ATOM      2  O   UNL     1     -34.226 -12.422  16.396  0.00  0.00    -0.268 OA
ATOM      3  N   UNL     1     -31.935 -12.447  16.882  0.00  0.00    -0.303 N 
ATOM      4  H   UNL     1     -31.102 -11.887  17.166  0.00  0.00    +0.150 HD
ENDROOT
BRANCH   1   7
ATOM      5  C   UNL     1     -33.623  -8.586  18.444  0.00  0.00    +0.143 A 
ATOM      6  C   UNL     1     -33.450  -9.950  18.583  0.00  0.00    +0.081 A 
ATOM      7  C   UNL     1     -33.389 -10.409  17.281  0.00  0.00    +0.168 A 
ATOM      8  N   UNL     1     -33.525  -9.370  16.433  0.00  0.00    -0.073 NA
ATOM      9  O   UNL     1     -33.662  -8.300  17.161  0.00  0.00    -0.358 OA
BRANCH   5  11
ATOM     10  C   UNL     1     -32.434  -6.809  19.725  0.00  0.00    +0.019 C 
ATOM     11  C   UNL     1     -33.761  -7.574  19.563  0.00  0.00    +0.023 C 
ATOM     12  C   UNL     1     -34.095  -8.291  20.887  0.00  0.00    +0.019 C 
ATOM     13  C   UNL     1     -34.893  -6.584  19.228  0.00  0.00    +0.019 C 
ENDBRANCH   5  11
ENDBRANCH   1   7
BRANCH   3  14
ATOM     14  C   UNL     1     -31.703 -13.867  16.587  0.00  0.00    +0.114 C 
BRANCH  14  15
ATOM     15  C   UNL     1     -30.858 -14.016  15.328  0.00  0.00    -0.027 A 
ATOM     16  C   UNL     1     -29.637 -14.712  15.416  0.00  0.00    +0.008 A 
ATOM     17  C   UNL     1     -28.849 -14.913  14.279  0.00  0.00    +0.038 A 
ATOM     18  C   UNL     1     -29.269 -14.429  13.039  0.00  0.00    +0.123 A 
ATOM     19  F   UNL     1     -28.502 -14.624  11.938  0.00  0.00    -0.205 F 
ATOM     20  C   UNL     1     -30.486 -13.752  12.932  0.00  0.00    +0.038 A 
ATOM     21  C   UNL     1     -31.280 -13.549  14.065  0.00  0.00    +0.008 A 
ENDBRANCH  14  15
BRANCH  14  22
ATOM     22  C   UNL     1     -31.186 -14.615  17.834  0.00  0.00    +0.147 C 
BRANCH  22  23
ATOM     23  C   UNL     1     -30.568 -13.673  18.824  0.00  0.00    +0.307 C 
ATOM     24  O   UNL     1     -29.766 -12.782  18.436  0.00  0.00    -0.251 OA
BRANCH  23  25
ATOM     25  O   UNL     1     -30.856 -13.806  20.179  0.00  0.00    -0.481 OA
ATOM     26  H   UNL     1     -31.744 -13.495  20.553  0.00  0.00    +0.295 HD
ENDBRANCH  23  25
ENDBRANCH  22  23
ENDBRANCH  14  22
ENDBRANCH   3  14
TORSDOF 7
ENDMDL
MODEL 6
REMARK VINA RESULT:    -4.208      3.517      7.337
REMARK INTER + INTRA:          -6.460
REMARK INTER:                  -5.160
REMARK INTRA:                  -1.301
REMARK UNBOUND:                -0.653
REMARK  Name = 
REMARK  10 active torsions:
REMARK  status: ('A' for Active; 'I' for Inactive)
REMARK    1  A    between atoms: C_1  and  C_2
REMARK    2  A    between atoms: C_2  and  C_3
REMARK    3  A    between atoms: C_2  and  C_4
REMARK    4  A    between atoms: C_2  and  C_5
REMARK    5  A    between atoms: C_7  and  C_10
REMARK    6  A    between atoms: N_12  and  C_13
REMARK    7  A    between atoms: C_13  and  C_14
REMARK    8  A    between atoms: C_13  and  C_18
REMARK    9  A    between atoms: C_14  and  C_15
REMARK   10  A    between atoms: C_15  and  O_17
REMARK                            x       y       z     vdW  Elec       q    Type
REMARK                         _______ _______ _______ _____ _____    ______ ____
ROOT
ATOM      1  C   UNL     1     -32.598 -11.706  18.137  0.00  0.00    +0.266 C 
ATOM      2  O   UNL     1     -32.909 -12.507  19.058  0.00  0.00    -0.268 OA
ATOM      3  N   UNL     1     -31.549 -10.742  18.337  0.00  0.00    -0.303 N 
ATOM      4  H   UNL     1     -31.251 -10.150  17.531  0.00  0.00    +0.150 HD
ENDROOT
BRANCH   1   7
ATOM      5  C   UNL     1     -33.879 -11.895  14.757  0.00  0.00    +0.143 A 
ATOM      6  C   UNL     1     -32.777 -11.835  15.589  0.00  0.00    +0.081 A 
ATOM      7  C   UNL     1     -33.323 -11.788  16.857  0.00  0.00    +0.168 A 
ATOM      8  N   UNL     1     -34.667 -11.815  16.767  0.00  0.00    -0.073 NA
ATOM      9  O   UNL     1     -34.963 -11.879  15.502  0.00  0.00    -0.358 OA
BRANCH   5  11
ATOM     10  C   UNL     1     -34.695 -10.788  12.678  0.00  0.00    +0.019 C 
ATOM     11  C   UNL     1     -33.867 -11.957  13.243  0.00  0.00    +0.023 C 
ATOM     12  C   UNL     1     -34.480 -13.288  12.763  0.00  0.00    +0.019 C 
ATOM     13  C   UNL     1     -32.416 -11.859  12.734  0.00  0.00    +0.019 C 
ENDBRANCH   5  11
ENDBRANCH   1   7
BRANCH   3  14
ATOM     14  C   UNL     1     -30.871 -10.501  19.617  0.00  0.00    +0.114 C 
BRANCH  14  15
ATOM     15  C   UNL     1     -29.640 -11.390  19.741  0.00  0.00    -0.027 A 
ATOM     16  C   UNL     1     -29.617 -12.370  20.751  0.00  0.00    +0.008 A 
ATOM     17  C   UNL     1     -28.529 -13.238  20.876  0.00  0.00    +0.038 A 
ATOM     18  C   UNL     1     -27.453 -13.146  19.992  0.00  0.00    +0.123 A 
ATOM     19  F   UNL     1     -26.397 -13.989  20.115  0.00  0.00    -0.205 F 
ATOM     20  C   UNL     1     -27.469 -12.191  18.973  0.00  0.00    +0.038 A 
ATOM     21  C   UNL     1     -28.555 -11.321  18.842  0.00  0.00    +0.008 A 
ENDBRANCH  14  15
BRANCH  14  22
ATOM     22  C   UNL     1     -30.634  -8.992  19.842  0.00  0.00    +0.147 C 
BRANCH  22  23
ATOM     23  C   UNL     1     -31.806  -8.176  19.384  0.00  0.00    +0.307 C 
ATOM     24  O   UNL     1     -32.520  -7.564  20.224  0.00  0.00    -0.251 OA
BRANCH  23  25
ATOM     25  O   UNL     1     -32.124  -8.121  18.031  0.00  0.00    -0.481 OA
ATOM     26  H   UNL     1     -33.079  -8.245  17.717  0.00  0.00    +0.295 HD
ENDBRANCH  23  25
ENDBRANCH  22  23
ENDBRANCH  14  22
ENDBRANCH   3  14
TORSDOF 7
ENDMDL
MODEL 7
REMARK VINA RESULT:    -4.188      2.172      2.787
REMARK INTER + INTRA:          -6.432
REMARK INTER:                  -5.965
REMARK INTRA:                  -0.466
REMARK UNBOUND:                -0.653
REMARK  Name = 
REMARK  10 active torsions:
REMARK  status: ('A' for Active; 'I' for Inactive)
REMARK    1  A    between atoms: C_1  and  C_2
REMARK    2  A    between atoms: C_2  and  C_3
REMARK    3  A    between atoms: C_2  and  C_4
REMARK    4  A    between atoms: C_2  and  C_5
REMARK    5  A    between atoms: C_7  and  C_10
REMARK    6  A    between atoms: N_12  and  C_13
REMARK    7  A    between atoms: C_13  and  C_14
REMARK    8  A    between atoms: C_13  and  C_18
REMARK    9  A    between atoms: C_14  and  C_15
REMARK   10  A    between atoms: C_15  and  O_17
REMARK                            x       y       z     vdW  Elec       q    Type
REMARK                         _______ _______ _______ _____ _____    ______ ____
ROOT
ATOM      1  C   UNL     1     -29.851 -10.437  18.470  0.00  0.00    +0.266 C 
ATOM      2  O   UNL     1     -28.770 -10.169  17.882  0.00  0.00    -0.268 OA
ATOM      3  N   UNL     1     -30.257 -11.805  18.655  0.00  0.00    -0.303 N 
ATOM      4  H   UNL     1     -31.111 -12.003  19.220  0.00  0.00    +0.150 HD
ENDROOT
BRANCH   1   7
ATOM      5  C   UNL     1     -32.278  -7.907  19.368  0.00  0.00    +0.143 A 
ATOM      6  C   UNL     1     -31.992  -9.049  18.644  0.00  0.00    +0.081 A 
ATOM      7  C   UNL     1     -30.677  -9.324  18.968  0.00  0.00    +0.168 A 
ATOM      8  N   UNL     1     -30.223  -8.391  19.828  0.00  0.00    -0.073 NA
ATOM      9  O   UNL     1     -31.204  -7.563  20.045  0.00  0.00    -0.358 OA
BRANCH   5  11
ATOM     10  C   UNL     1     -34.386  -7.543  20.648  0.00  0.00    +0.019 C 
ATOM     11  C   UNL     1     -33.593  -7.154  19.386  0.00  0.00    +0.023 C 
ATOM     12  C   UNL     1     -34.424  -7.510  18.137  0.00  0.00    +0.019 C 
ATOM     13  C   UNL     1     -33.319  -5.637  19.391  0.00  0.00    +0.019 C 
ENDBRANCH   5  11
ENDBRANCH   1   7
BRANCH   3  14
ATOM     14  C   UNL     1     -29.568 -12.965  18.075  0.00  0.00    +0.114 C 
BRANCH  14  15
ATOM     15  C   UNL     1     -30.036 -13.201  16.645  0.00  0.00    -0.027 A 
ATOM     16  C   UNL     1     -29.388 -14.187  15.878  0.00  0.00    +0.008 A 
ATOM     17  C   UNL     1     -29.812 -14.470  14.577  0.00  0.00    +0.038 A 
ATOM     18  C   UNL     1     -30.891 -13.779  14.024  0.00  0.00    +0.123 A 
ATOM     19  F   UNL     1     -31.300 -14.055  12.761  0.00  0.00    -0.205 F 
ATOM     20  C   UNL     1     -31.556 -12.810  14.778  0.00  0.00    +0.038 A 
ATOM     21  C   UNL     1     -31.139 -12.523  16.082  0.00  0.00    +0.008 A 
ENDBRANCH  14  15
BRANCH  14  22
ATOM     22  C   UNL     1     -28.040 -12.856  18.271  0.00  0.00    +0.147 C 
BRANCH  22  23
ATOM     23  C   UNL     1     -27.629 -13.283  19.649  0.00  0.00    +0.307 C 
ATOM     24  O   UNL     1     -28.029 -12.643  20.658  0.00  0.00    -0.251 OA
BRANCH  23  25
ATOM     25  O   UNL     1     -26.777 -14.371  19.810  0.00  0.00    -0.481 OA
ATOM     26  H   UNL     1     -26.295 -14.775  19.015  0.00  0.00    +0.295 HD
ENDBRANCH  23  25
ENDBRANCH  22  23
ENDBRANCH  14  22
ENDBRANCH   3  14
TORSDOF 7
ENDMDL
MODEL 8
REMARK VINA RESULT:    -4.025      1.866      2.433
REMARK INTER + INTRA:          -6.208
REMARK INTER:                  -5.093
REMARK INTRA:                  -1.115
REMARK UNBOUND:                -0.653
REMARK  Name = 
REMARK  10 active torsions:
REMARK  status: ('A' for Active; 'I' for Inactive)
REMARK    1  A    between atoms: C_1  and  C_2
REMARK    2  A    between atoms: C_2  and  C_3
REMARK    3  A    between atoms: C_2  and  C_4
REMARK    4  A    between atoms: C_2  and  C_5
REMARK    5  A    between atoms: C_7  and  C_10
REMARK    6  A    between atoms: N_12  and  C_13
REMARK    7  A    between atoms: C_13  and  C_14
REMARK    8  A    between atoms: C_13  and  C_18
REMARK    9  A    between atoms: C_14  and  C_15
REMARK   10  A    between atoms: C_15  and  O_17
REMARK                            x       y       z     vdW  Elec       q    Type
REMARK                         _______ _______ _______ _____ _____    ______ ____
ROOT
ATOM      1  C   UNL     1     -31.109 -10.710  18.964  0.00  0.00    +0.266 C 
ATOM      2  O   UNL     1     -31.955 -11.513  19.437  0.00  0.00    -0.268 OA
ATOM      3  N   UNL     1     -30.213 -11.131  17.919  0.00  0.00    -0.303 N 
ATOM      4  H   UNL     1     -29.581 -10.423  17.484  0.00  0.00    +0.150 HD
ENDROOT
BRANCH   1   7
ATOM      5  C   UNL     1     -31.550  -7.336  20.197  0.00  0.00    +0.143 A 
ATOM      6  C   UNL     1     -32.135  -8.487  19.704  0.00  0.00    +0.081 A 
ATOM      7  C   UNL     1     -31.066  -9.336  19.495  0.00  0.00    +0.168 A 
ATOM      8  N   UNL     1     -29.923  -8.711  19.842  0.00  0.00    -0.073 NA
ATOM      9  O   UNL     1     -30.250  -7.522  20.257  0.00  0.00    -0.358 OA
BRANCH   5  11
ATOM     10  C   UNL     1     -33.207  -5.624  19.461  0.00  0.00    +0.019 C 
ATOM     11  C   UNL     1     -32.263  -6.059  20.597  0.00  0.00    +0.023 C 
ATOM     12  C   UNL     1     -31.236  -4.939  20.857  0.00  0.00    +0.019 C 
ATOM     13  C   UNL     1     -33.076  -6.304  21.883  0.00  0.00    +0.019 C 
ENDBRANCH   5  11
ENDBRANCH   1   7
BRANCH   3  14
ATOM     14  C   UNL     1     -30.095 -12.509  17.429  0.00  0.00    +0.114 C 
BRANCH  14  15
ATOM     15  C   UNL     1     -30.642 -12.617  16.010  0.00  0.00    -0.027 A 
ATOM     16  C   UNL     1     -30.284 -13.735  15.234  0.00  0.00    +0.008 A 
ATOM     17  C   UNL     1     -30.797 -13.900  13.944  0.00  0.00    +0.038 A 
ATOM     18  C   UNL     1     -31.678 -12.956  13.413  0.00  0.00    +0.123 A 
ATOM     19  F   UNL     1     -32.173 -13.117  12.161  0.00  0.00    -0.205 F 
ATOM     20  C   UNL     1     -32.056 -11.850  14.178  0.00  0.00    +0.038 A 
ATOM     21  C   UNL     1     -31.548 -11.680  15.470  0.00  0.00    +0.008 A 
ENDBRANCH  14  15
BRANCH  14  22
ATOM     22  C   UNL     1     -28.664 -13.051  17.638  0.00  0.00    +0.147 C 
BRANCH  22  23
ATOM     23  C   UNL     1     -27.960 -12.332  18.750  0.00  0.00    +0.307 C 
ATOM     24  O   UNL     1     -27.858 -12.866  19.887  0.00  0.00    -0.251 OA
BRANCH  23  25
ATOM     25  O   UNL     1     -27.448 -11.057  18.533  0.00  0.00    -0.481 OA
ATOM     26  H   UNL     1     -28.050 -10.299  18.233  0.00  0.00    +0.295 HD
ENDBRANCH  23  25
ENDBRANCH  22  23
ENDBRANCH  14  22
ENDBRANCH   3  14
TORSDOF 7
ENDMDL
