MODEL 1
REMARK VINA RESULT:    -4.683      0.000      0.000
REMARK INTER + INTRA:          -8.517
REMARK INTER:                  -6.600
REMARK INTRA:                  -1.917
REMARK UNBOUND:                -1.917
REMARK  Name = 
REMARK  7 active torsions:
REMARK  status: ('A' for Active; 'I' for Inactive)
REMARK    1  A    between atoms: S_2  and  N_4
REMARK    2  A    between atoms: S_2  and  C_13
REMARK    3  A    between atoms: N_4  and  C_5
REMARK    4  A    between atoms: C_5  and  C_6
REMARK    5  A    between atoms: C_6  and  C_7
REMARK    6  A    between atoms: C_18  and  O_19
REMARK    7  A    between atoms: O_19  and  C_20
REMARK                            x       y       z     vdW  Elec       q    Type
REMARK                         _______ _______ _______ _____ _____    ______ ____
ROOT
ATOM      1  O   UNL     1     -33.363  -9.518  15.633  0.00  0.00    -0.153 OA
ATOM      2  S   UNL     1     -32.570 -10.786  15.789  0.00  0.00    +0.062 S 
ATOM      3  O   UNL     1     -33.126 -11.538  16.967  0.00  0.00    -0.153 OA
ENDROOT
BRANCH   2   4
ATOM      4  C   UNL     1     -32.722 -11.749  14.311  0.00  0.00    +0.147 A 
ATOM      5  C   UNL     1     -33.842 -11.556  13.488  0.00  0.00    +0.032 A 
ATOM      6  C   UNL     1     -33.987 -12.286  12.309  0.00  0.00    +0.002 A 
ATOM      7  C   UNL     1     -33.015 -13.215  11.938  0.00  0.00    +0.004 A 
ATOM      8  C   UNL     1     -31.890 -13.410  12.742  0.00  0.00    +0.048 A 
ATOM      9  C   UNL     1     -31.728 -12.677  13.936  0.00  0.00    +0.156 A 
BRANCH   9  10
ATOM     10  O   UNL     1     -30.600 -12.838  14.759  0.00  0.00    -0.404 OA
BRANCH  10  11
ATOM     11  C   UNL     1     -30.208 -14.045  15.406  0.00  0.00    +0.575 C 
ATOM     12  F   UNL     1     -29.328 -13.740  16.427  0.00  0.00    -0.133 F 
ATOM     13  F   UNL     1     -29.573 -14.884  14.507  0.00  0.00    -0.133 F 
ATOM     14  F   UNL     1     -31.313 -14.678  15.946  0.00  0.00    -0.133 F 
ENDBRANCH  10  11
ENDBRANCH   9  10
ENDBRANCH   2   4
BRANCH   2  15
ATOM     15  N   UNL     1     -30.907 -10.374  16.081  0.00  0.00    -0.190 NA
ATOM     16  H   UNL     1     -30.326 -11.091  15.589  0.00  0.00    +0.148 HD
BRANCH  15  17
ATOM     17  C   UNL     1     -30.615 -10.451  17.515  0.00  0.00    +0.110 C 
BRANCH  17  18
ATOM     18  C   UNL     1     -29.112 -10.292  17.763  0.00  0.00    +0.053 C 
BRANCH  18  19
ATOM     19  C   UNL     1     -28.580 -11.402  18.631  0.00  0.00    -0.028 A 
ATOM     20  C   UNL     1     -29.440 -12.135  19.464  0.00  0.00    +0.006 A 
ATOM     21  C   UNL     1     -28.937 -13.182  20.237  0.00  0.00    +0.020 A 
ATOM     22  C   UNL     1     -27.578 -13.494  20.166  0.00  0.00    +0.111 A 
ATOM     23  N   UNL     1     -26.759 -12.784  19.346  0.00  0.00    -0.263 NA
ATOM     24  C   UNL     1     -27.224 -11.759  18.583  0.00  0.00    +0.114 A 
ENDBRANCH  18  19
ENDBRANCH  17  18
ENDBRANCH  15  17
ENDBRANCH   2  15
TORSDOF 7
ENDMDL
MODEL 2
REMARK VINA RESULT:    -4.677      1.695      2.161
REMARK INTER + INTRA:          -8.508
REMARK INTER:                  -6.126
REMARK INTRA:                  -2.382
REMARK UNBOUND:                -1.917
REMARK  Name = 
REMARK  7 active torsions:
REMARK  status: ('A' for Active; 'I' for Inactive)
REMARK    1  A    between atoms: S_2  and  N_4
REMARK    2  A    between atoms: S_2  and  C_13
REMARK    3  A    between atoms: N_4  and  C_5
REMARK    4  A    between atoms: C_5  and  C_6
REMARK    5  A    between atoms: C_6  and  C_7
REMARK    6  A    between atoms: C_18  and  O_19
REMARK    7  A    between atoms: O_19  and  C_20
REMARK                            x       y       z     vdW  Elec       q    Type
REMARK                         _______ _______ _______ _____ _____    ______ ____
ROOT
ATOM      1  O   UNL     1     -33.980 -10.170  14.846  0.00  0.00    -0.153 OA
ATOM      2  S   UNL     1     -33.523 -11.402  15.576  0.00  0.00    +0.062 S 
ATOM      3  O   UNL     1     -34.746 -12.153  16.028  0.00  0.00    -0.153 OA
ENDROOT
BRANCH   2   4
ATOM      4  C   UNL     1     -32.554 -12.398  14.481  0.00  0.00    +0.147 A 
ATOM      5  C   UNL     1     -32.882 -12.423  13.117  0.00  0.00    +0.032 A 
ATOM      6  C   UNL     1     -32.131 -13.185  12.222  0.00  0.00    +0.002 A 
ATOM      7  C   UNL     1     -31.043 -13.928  12.680  0.00  0.00    +0.004 A 
ATOM      8  C   UNL     1     -30.698 -13.905  14.033  0.00  0.00    +0.048 A 
ATOM      9  C   UNL     1     -31.447 -13.138  14.949  0.00  0.00    +0.156 A 
BRANCH   9  10
ATOM     10  O   UNL     1     -31.117 -13.080  16.314  0.00  0.00    -0.404 OA
BRANCH  10  11
ATOM     11  C   UNL     1     -31.241 -14.151  17.246  0.00  0.00    +0.575 C 
ATOM     12  F   UNL     1     -31.346 -13.626  18.519  0.00  0.00    -0.133 F 
ATOM     13  F   UNL     1     -30.123 -14.964  17.189  0.00  0.00    -0.133 F 
ATOM     14  F   UNL     1     -32.379 -14.891  16.974  0.00  0.00    -0.133 F 
ENDBRANCH  10  11
ENDBRANCH   9  10
ENDBRANCH   2   4
BRANCH   2  15
ATOM     15  N   UNL     1     -32.583 -10.918  16.955  0.00  0.00    -0.190 NA
ATOM     16  H   UNL     1     -33.243 -10.847  17.763  0.00  0.00    +0.148 HD
BRANCH  15  17
ATOM     17  C   UNL     1     -31.996  -9.596  16.725  0.00  0.00    +0.110 C 
BRANCH  17  18
ATOM     18  C   UNL     1     -30.467  -9.684  16.713  0.00  0.00    +0.053 C 
BRANCH  18  19
ATOM     19  C   UNL     1     -29.943 -10.272  17.996  0.00  0.00    -0.028 A 
ATOM     20  C   UNL     1     -28.904 -11.215  17.980  0.00  0.00    +0.006 A 
ATOM     21  C   UNL     1     -28.405 -11.726  19.179  0.00  0.00    +0.020 A 
ATOM     22  C   UNL     1     -28.946 -11.283  20.388  0.00  0.00    +0.111 A 
ATOM     23  N   UNL     1     -29.945 -10.361  20.390  0.00  0.00    -0.263 NA
ATOM     24  C   UNL     1     -30.447  -9.848  19.235  0.00  0.00    +0.114 A 
ENDBRANCH  18  19
ENDBRANCH  17  18
ENDBRANCH  15  17
ENDBRANCH   2  15
TORSDOF 7
ENDMDL
MODEL 3
REMARK VINA RESULT:    -4.655      2.652      3.834
REMARK INTER + INTRA:          -8.476
REMARK INTER:                  -7.375
REMARK INTRA:                  -1.101
REMARK UNBOUND:                -1.917
REMARK  Name = 
REMARK  7 active torsions:
REMARK  status: ('A' for Active; 'I' for Inactive)
REMARK    1  A    between atoms: S_2  and  N_4
REMARK    2  A    between atoms: S_2  and  C_13
REMARK    3  A    between atoms: N_4  and  C_5
REMARK    4  A    between atoms: C_5  and  C_6
REMARK    5  A    between atoms: C_6  and  C_7
REMARK    6  A    between atoms: C_18  and  O_19
REMARK    7  A    between atoms: O_19  and  C_20
REMARK                            x       y       z     vdW  Elec       q    Type
REMARK                         _______ _______ _______ _____ _____    ______ ____
ROOT
ATOM      1  O   UNL     1     -30.325 -14.963  17.433  0.00  0.00    -0.153 OA
ATOM      2  S   UNL     1     -29.810 -13.615  17.009  0.00  0.00    +0.062 S 
ATOM      3  O   UNL     1     -28.344 -13.752  16.708  0.00  0.00    -0.153 OA
ENDROOT
BRANCH   2   4
ATOM      4  C   UNL     1     -30.692 -13.088  15.568  0.00  0.00    +0.147 A 
ATOM      5  C   UNL     1     -30.682 -13.906  14.428  0.00  0.00    +0.032 A 
ATOM      6  C   UNL     1     -31.378 -13.529  13.280  0.00  0.00    +0.002 A 
ATOM      7  C   UNL     1     -32.094 -12.332  13.258  0.00  0.00    +0.004 A 
ATOM      8  C   UNL     1     -32.122 -11.513  14.388  0.00  0.00    +0.048 A 
ATOM      9  C   UNL     1     -31.424 -11.881  15.557  0.00  0.00    +0.156 A 
BRANCH   9  10
ATOM     10  O   UNL     1     -31.446 -11.087  16.717  0.00  0.00    -0.404 OA
BRANCH  10  11
ATOM     11  C   UNL     1     -31.191  -9.686  16.770  0.00  0.00    +0.575 C 
ATOM     12  F   UNL     1     -30.822  -9.347  18.057  0.00  0.00    -0.133 F 
ATOM     13  F   UNL     1     -32.333  -8.981  16.434  0.00  0.00    -0.133 F 
ATOM     14  F   UNL     1     -30.159  -9.356  15.909  0.00  0.00    -0.133 F 
ENDBRANCH  10  11
ENDBRANCH   9  10
ENDBRANCH   2   4
BRANCH   2  15
ATOM     15  N   UNL     1     -30.044 -12.491  18.313  0.00  0.00    -0.190 NA
ATOM     16  H   UNL     1     -29.158 -11.943  18.404  0.00  0.00    +0.148 HD
BRANCH  15  17
ATOM     17  C   UNL     1     -30.265 -13.215  19.568  0.00  0.00    +0.110 C 
BRANCH  17  18
ATOM     18  C   UNL     1     -29.447 -12.588  20.699  0.00  0.00    +0.053 C 
BRANCH  18  19
ATOM     19  C   UNL     1     -28.044 -13.138  20.730  0.00  0.00    -0.028 A 
ATOM     20  C   UNL     1     -27.672 -14.097  21.684  0.00  0.00    +0.006 A 
ATOM     21  C   UNL     1     -26.379 -14.622  21.679  0.00  0.00    +0.020 A 
ATOM     22  C   UNL     1     -25.469 -14.187  20.714  0.00  0.00    +0.111 A 
ATOM     23  N   UNL     1     -25.846 -13.266  19.788  0.00  0.00    -0.263 NA
ATOM     24  C   UNL     1     -27.100 -12.740  19.772  0.00  0.00    +0.114 A 
ENDBRANCH  18  19
ENDBRANCH  17  18
ENDBRANCH  15  17
ENDBRANCH   2  15
TORSDOF 7
ENDMDL
MODEL 4
REMARK VINA RESULT:    -4.647      2.641      3.762
REMARK INTER + INTRA:          -8.466
REMARK INTER:                  -7.363
REMARK INTRA:                  -1.103
REMARK UNBOUND:                -1.917
REMARK  Name = 
REMARK  7 active torsions:
REMARK  status: ('A' for Active; 'I' for Inactive)
REMARK    1  A    between atoms: S_2  and  N_4
REMARK    2  A    between atoms: S_2  and  C_13
REMARK    3  A    between atoms: N_4  and  C_5
REMARK    4  A    between atoms: C_5  and  C_6
REMARK    5  A    between atoms: C_6  and  C_7
REMARK    6  A    between atoms: C_18  and  O_19
REMARK    7  A    between atoms: O_19  and  C_20
REMARK                            x       y       z     vdW  Elec       q    Type
REMARK                         _______ _______ _______ _____ _____    ______ ____
ROOT
ATOM      1  O   UNL     1     -31.490 -11.825  17.557  0.00  0.00    -0.153 OA
ATOM      2  S   UNL     1     -31.523 -13.322  17.421  0.00  0.00    +0.062 S 
ATOM      3  O   UNL     1     -32.963 -13.754  17.388  0.00  0.00    -0.153 OA
ENDROOT
BRANCH   2   4
ATOM      4  C   UNL     1     -30.703 -13.784  15.922  0.00  0.00    +0.147 A 
ATOM      5  C   UNL     1     -29.454 -14.418  15.999  0.00  0.00    +0.032 A 
ATOM      6  C   UNL     1     -28.786 -14.809  14.839  0.00  0.00    +0.002 A 
ATOM      7  C   UNL     1     -29.359 -14.573  13.589  0.00  0.00    +0.004 A 
ATOM      8  C   UNL     1     -30.606 -13.951  13.497  0.00  0.00    +0.048 A 
ATOM      9  C   UNL     1     -31.295 -13.552  14.662  0.00  0.00    +0.156 A 
BRANCH   9  10
ATOM     10  O   UNL     1     -32.558 -12.940  14.605  0.00  0.00    -0.404 OA
BRANCH  10  11
ATOM     11  C   UNL     1     -32.817 -11.604  14.182  0.00  0.00    +0.575 C 
ATOM     12  F   UNL     1     -33.162 -11.617  12.845  0.00  0.00    -0.133 F 
ATOM     13  F   UNL     1     -31.684 -10.826  14.342  0.00  0.00    -0.133 F 
ATOM     14  F   UNL     1     -33.866 -11.068  14.908  0.00  0.00    -0.133 F 
ENDBRANCH  10  11
ENDBRANCH   9  10
ENDBRANCH   2   4
BRANCH   2  15
ATOM     15  N   UNL     1     -30.725 -14.026  18.795  0.00  0.00    -0.190 NA
ATOM     16  H   UNL     1     -31.465 -14.485  19.374  0.00  0.00    +0.148 HD
BRANCH  15  17
ATOM     17  C   UNL     1     -30.096 -12.978  19.603  0.00  0.00    +0.110 C 
BRANCH  17  18
ATOM     18  C   UNL     1     -29.471 -13.577  20.865  0.00  0.00    +0.053 C 
BRANCH  18  19
ATOM     19  C   UNL     1     -27.971 -13.660  20.747  0.00  0.00    -0.028 A 
ATOM     20  C   UNL     1     -27.232 -14.507  21.587  0.00  0.00    +0.006 A 
ATOM     21  C   UNL     1     -25.847 -14.597  21.443  0.00  0.00    +0.020 A 
ATOM     22  C   UNL     1     -25.211 -13.844  20.454  0.00  0.00    +0.111 A 
ATOM     23  N   UNL     1     -25.941 -13.036  19.640  0.00  0.00    -0.263 NA
ATOM     24  C   UNL     1     -27.291 -12.930  19.760  0.00  0.00    +0.114 A 
ENDBRANCH  18  19
ENDBRANCH  17  18
ENDBRANCH  15  17
ENDBRANCH   2  15
TORSDOF 7
ENDMDL
MODEL 5
REMARK VINA RESULT:    -4.582      3.017      5.236
REMARK INTER + INTRA:          -8.373
REMARK INTER:                  -5.256
REMARK INTRA:                  -3.117
REMARK UNBOUND:                -1.917
REMARK  Name = 
REMARK  7 active torsions:
REMARK  status: ('A' for Active; 'I' for Inactive)
REMARK    1  A    between atoms: S_2  and  N_4
REMARK    2  A    between atoms: S_2  and  C_13
REMARK    3  A    between atoms: N_4  and  C_5
REMARK    4  A    between atoms: C_5  and  C_6
REMARK    5  A    between atoms: C_6  and  C_7
REMARK    6  A    between atoms: C_18  and  O_19
REMARK    7  A    between atoms: O_19  and  C_20
REMARK                            x       y       z     vdW  Elec       q    Type
REMARK                         _______ _______ _______ _____ _____    ______ ____
ROOT
ATOM      1  O   UNL     1     -32.820 -12.414  19.544  0.00  0.00    -0.153 OA
ATOM      2  S   UNL     1     -31.320 -12.323  19.488  0.00  0.00    +0.062 S 
ATOM      3  O   UNL     1     -30.770 -12.954  20.737  0.00  0.00    -0.153 OA
ENDROOT
BRANCH   2   4
ATOM      4  C   UNL     1     -30.743 -13.183  18.053  0.00  0.00    +0.147 A 
ATOM      5  C   UNL     1     -31.591 -14.112  17.431  0.00  0.00    +0.032 A 
ATOM      6  C   UNL     1     -31.174 -14.797  16.290  0.00  0.00    +0.002 A 
ATOM      7  C   UNL     1     -29.908 -14.560  15.756  0.00  0.00    +0.004 A 
ATOM      8  C   UNL     1     -29.057 -13.631  16.358  0.00  0.00    +0.048 A 
ATOM      9  C   UNL     1     -29.465 -12.929  17.511  0.00  0.00    +0.156 A 
BRANCH   9  10
ATOM     10  O   UNL     1     -28.639 -11.975  18.131  0.00  0.00    -0.404 OA
BRANCH  10  11
ATOM     11  C   UNL     1     -27.646 -12.250  19.116  0.00  0.00    +0.575 C 
ATOM     12  F   UNL     1     -28.016 -11.650  20.304  0.00  0.00    -0.133 F 
ATOM     13  F   UNL     1     -26.425 -11.734  18.718  0.00  0.00    -0.133 F 
ATOM     14  F   UNL     1     -27.539 -13.614  19.320  0.00  0.00    -0.133 F 
ENDBRANCH  10  11
ENDBRANCH   9  10
ENDBRANCH   2   4
BRANCH   2  15
ATOM     15  N   UNL     1     -30.864 -10.648  19.421  0.00  0.00    -0.190 NA
ATOM     16  H   UNL     1     -30.749 -10.325  20.409  0.00  0.00    +0.148 HD
BRANCH  15  17
ATOM     17  C   UNL     1     -31.933  -9.860  18.803  0.00  0.00    +0.110 C 
BRANCH  17  18
ATOM     18  C   UNL     1     -31.540  -9.445  17.383  0.00  0.00    +0.053 C 
BRANCH  18  19
ATOM     19  C   UNL     1     -32.230 -10.300  16.352  0.00  0.00    -0.028 A 
ATOM     20  C   UNL     1     -31.558 -10.701  15.188  0.00  0.00    +0.006 A 
ATOM     21  C   UNL     1     -32.199 -11.520  14.258  0.00  0.00    +0.020 A 
ATOM     22  C   UNL     1     -33.508 -11.939  14.504  0.00  0.00    +0.111 A 
ATOM     23  N   UNL     1     -34.144 -11.552  15.642  0.00  0.00    -0.263 NA
ATOM     24  C   UNL     1     -33.541 -10.755  16.562  0.00  0.00    +0.114 A 
ENDBRANCH  18  19
ENDBRANCH  17  18
ENDBRANCH  15  17
ENDBRANCH   2  15
TORSDOF 7
ENDMDL
MODEL 6
REMARK VINA RESULT:    -4.564      3.282      5.429
REMARK INTER + INTRA:          -8.348
REMARK INTER:                  -5.336
REMARK INTRA:                  -3.013
REMARK UNBOUND:                -1.917
REMARK  Name = 
REMARK  7 active torsions:
REMARK  status: ('A' for Active; 'I' for Inactive)
REMARK    1  A    between atoms: S_2  and  N_4
REMARK    2  A    between atoms: S_2  and  C_13
REMARK    3  A    between atoms: N_4  and  C_5
REMARK    4  A    between atoms: C_5  and  C_6
REMARK    5  A    between atoms: C_6  and  C_7
REMARK    6  A    between atoms: C_18  and  O_19
REMARK    7  A    between atoms: O_19  and  C_20
REMARK                            x       y       z     vdW  Elec       q    Type
REMARK                         _______ _______ _______ _____ _____    ______ ____
ROOT
ATOM      1  O   UNL     1     -28.470 -10.143  17.606  0.00  0.00    -0.153 OA
ATOM      2  S   UNL     1     -29.941 -10.146  17.297  0.00  0.00    +0.062 S 
ATOM      3  O   UNL     1     -30.180  -9.181  16.168  0.00  0.00    -0.153 OA
ENDROOT
BRANCH   2   4
ATOM      4  C   UNL     1     -30.430 -11.781  16.829  0.00  0.00    +0.147 A 
ATOM      5  C   UNL     1     -30.794 -12.025  15.496  0.00  0.00    +0.032 A 
ATOM      6  C   UNL     1     -31.171 -13.305  15.089  0.00  0.00    +0.002 A 
ATOM      7  C   UNL     1     -31.185 -14.355  16.008  0.00  0.00    +0.004 A 
ATOM      8  C   UNL     1     -30.816 -14.129  17.335  0.00  0.00    +0.048 A 
ATOM      9  C   UNL     1     -30.431 -12.840  17.761  0.00  0.00    +0.156 A 
BRANCH   9  10
ATOM     10  O   UNL     1     -30.037 -12.583  19.086  0.00  0.00    -0.404 OA
BRANCH  10  11
ATOM     11  C   UNL     1     -30.867 -12.704  20.238  0.00  0.00    +0.575 C 
ATOM     12  F   UNL     1     -32.187 -12.569  19.855  0.00  0.00    -0.133 F 
ATOM     13  F   UNL     1     -30.564 -11.708  21.150  0.00  0.00    -0.133 F 
ATOM     14  F   UNL     1     -30.698 -13.947  20.821  0.00  0.00    -0.133 F 
ENDBRANCH  10  11
ENDBRANCH   9  10
ENDBRANCH   2   4
BRANCH   2  15
ATOM     15  N   UNL     1     -30.811  -9.629  18.710  0.00  0.00    -0.190 NA
ATOM     16  H   UNL     1     -31.192 -10.490  19.164  0.00  0.00    +0.148 HD
BRANCH  15  17
ATOM     17  C   UNL     1     -31.938  -8.777  18.323  0.00  0.00    +0.110 C 
BRANCH  17  18
ATOM     18  C   UNL     1     -33.260  -9.533  18.486  0.00  0.00    +0.053 C 
BRANCH  18  19
ATOM     19  C   UNL     1     -33.743 -10.082  17.169  0.00  0.00    -0.028 A 
ATOM     20  C   UNL     1     -33.616  -9.332  15.990  0.00  0.00    +0.006 A 
ATOM     21  C   UNL     1     -34.037  -9.869  14.773  0.00  0.00    +0.020 A 
ATOM     22  C   UNL     1     -34.575 -11.157  14.743  0.00  0.00    +0.111 A 
ATOM     23  N   UNL     1     -34.682 -11.877  15.891  0.00  0.00    -0.263 NA
ATOM     24  C   UNL     1     -34.279 -11.377  17.089  0.00  0.00    +0.114 A 
ENDBRANCH  18  19
ENDBRANCH  17  18
ENDBRANCH  15  17
ENDBRANCH   2  15
TORSDOF 7
ENDMDL
MODEL 7
REMARK VINA RESULT:    -4.504      4.116      5.208
REMARK INTER + INTRA:          -8.264
REMARK INTER:                  -5.357
REMARK INTRA:                  -2.908
REMARK UNBOUND:                -1.917
REMARK  Name = 
REMARK  7 active torsions:
REMARK  status: ('A' for Active; 'I' for Inactive)
REMARK    1  A    between atoms: S_2  and  N_4
REMARK    2  A    between atoms: S_2  and  C_13
REMARK    3  A    between atoms: N_4  and  C_5
REMARK    4  A    between atoms: C_5  and  C_6
REMARK    5  A    between atoms: C_6  and  C_7
REMARK    6  A    between atoms: C_18  and  O_19
REMARK    7  A    between atoms: O_19  and  C_20
REMARK                            x       y       z     vdW  Elec       q    Type
REMARK                         _______ _______ _______ _____ _____    ______ ____
ROOT
ATOM      1  O   UNL     1     -28.675  -9.972  18.812  0.00  0.00    -0.153 OA
ATOM      2  S   UNL     1     -30.088  -9.743  19.274  0.00  0.00    +0.062 S 
ATOM      3  O   UNL     1     -30.211  -8.305  19.696  0.00  0.00    -0.153 OA
ENDROOT
BRANCH   2   4
ATOM      4  C   UNL     1     -31.196 -10.094  17.938  0.00  0.00    +0.147 A 
ATOM      5  C   UNL     1     -30.718 -10.014  16.622  0.00  0.00    +0.032 A 
ATOM      6  C   UNL     1     -31.559 -10.298  15.546  0.00  0.00    +0.002 A 
ATOM      7  C   UNL     1     -32.884 -10.666  15.773  0.00  0.00    +0.004 A 
ATOM      8  C   UNL     1     -33.371 -10.759  17.079  0.00  0.00    +0.048 A 
ATOM      9  C   UNL     1     -32.532 -10.477  18.177  0.00  0.00    +0.156 A 
BRANCH   9  10
ATOM     10  O   UNL     1     -32.986 -10.578  19.503  0.00  0.00    -0.404 OA
BRANCH  10  11
ATOM     11  C   UNL     1     -33.755  -9.597  20.196  0.00  0.00    +0.575 C 
ATOM     12  F   UNL     1     -32.904  -8.819  20.957  0.00  0.00    -0.133 F 
ATOM     13  F   UNL     1     -34.667 -10.212  21.035  0.00  0.00    -0.133 F 
ATOM     14  F   UNL     1     -34.415  -8.783  19.293  0.00  0.00    -0.133 F 
ENDBRANCH  10  11
ENDBRANCH   9  10
ENDBRANCH   2   4
BRANCH   2  15
ATOM     15  N   UNL     1     -30.411 -10.787  20.625  0.00  0.00    -0.190 NA
ATOM     16  H   UNL     1     -30.125 -10.266  21.486  0.00  0.00    +0.148 HD
BRANCH  15  17
ATOM     17  C   UNL     1     -29.594 -11.999  20.530  0.00  0.00    +0.110 C 
BRANCH  17  18
ATOM     18  C   UNL     1     -30.436 -13.174  20.025  0.00  0.00    +0.053 C 
BRANCH  18  19
ATOM     19  C   UNL     1     -30.080 -13.533  18.606  0.00  0.00    -0.028 A 
ATOM     20  C   UNL     1     -31.052 -14.042  17.732  0.00  0.00    +0.006 A 
ATOM     21  C   UNL     1     -30.714 -14.339  16.410  0.00  0.00    +0.020 A 
ATOM     22  C   UNL     1     -29.408 -14.116  15.971  0.00  0.00    +0.111 A 
ATOM     23  N   UNL     1     -28.479 -13.611  16.826  0.00  0.00    -0.263 NA
ATOM     24  C   UNL     1     -28.783 -13.314  18.118  0.00  0.00    +0.114 A 
ENDBRANCH  18  19
ENDBRANCH  17  18
ENDBRANCH  15  17
ENDBRANCH   2  15
TORSDOF 7
ENDMDL
MODEL 8
REMARK VINA RESULT:    -4.473      1.505      1.875
REMARK INTER + INTRA:          -8.220
REMARK INTER:                  -6.161
REMARK INTRA:                  -2.059
REMARK UNBOUND:                -1.917
REMARK  Name = 
REMARK  7 active torsions:
REMARK  status: ('A' for Active; 'I' for Inactive)
REMARK    1  A    between atoms: S_2  and  N_4
REMARK    2  A    between atoms: S_2  and  C_13
REMARK    3  A    between atoms: N_4  and  C_5
REMARK    4  A    between atoms: C_5  and  C_6
REMARK    5  A    between atoms: C_6  and  C_7
REMARK    6  A    between atoms: C_18  and  O_19
REMARK    7  A    between atoms: O_19  and  C_20
REMARK                            x       y       z     vdW  Elec       q    Type
REMARK                         _______ _______ _______ _____ _____    ______ ____
ROOT
ATOM      1  O   UNL     1     -32.964 -10.195  16.675  0.00  0.00    -0.153 OA
ATOM      2  S   UNL     1     -33.554 -11.560  16.448  0.00  0.00    +0.062 S 
ATOM      3  O   UNL     1     -35.049 -11.445  16.566  0.00  0.00    -0.153 OA
ENDROOT
BRANCH   2   4
ATOM      4  C   UNL     1     -33.101 -12.123  14.832  0.00  0.00    +0.147 A 
ATOM      5  C   UNL     1     -33.975 -11.883  13.761  0.00  0.00    +0.032 A 
ATOM      6  C   UNL     1     -33.644 -12.300  12.471  0.00  0.00    +0.002 A 
ATOM      7  C   UNL     1     -32.436 -12.958  12.238  0.00  0.00    +0.004 A 
ATOM      8  C   UNL     1     -31.552 -13.195  13.293  0.00  0.00    +0.048 A 
ATOM      9  C   UNL     1     -31.872 -12.777  14.602  0.00  0.00    +0.156 A 
BRANCH   9  10
ATOM     10  O   UNL     1     -30.998 -12.985  15.682  0.00  0.00    -0.404 OA
BRANCH  10  11
ATOM     11  C   UNL     1     -30.272 -14.183  15.946  0.00  0.00    +0.575 C 
ATOM     12  F   UNL     1     -28.936 -13.870  16.103  0.00  0.00    -0.133 F 
ATOM     13  F   UNL     1     -30.403 -15.062  14.886  0.00  0.00    -0.133 F 
ATOM     14  F   UNL     1     -30.731 -14.772  17.111  0.00  0.00    -0.133 F 
ENDBRANCH  10  11
ENDBRANCH   9  10
ENDBRANCH   2   4
BRANCH   2  15
ATOM     15  N   UNL     1     -32.946 -12.641  17.664  0.00  0.00    -0.190 NA
ATOM     16  H   UNL     1     -33.720 -13.305  17.895  0.00  0.00    +0.148 HD
BRANCH  15  17
ATOM     17  C   UNL     1     -32.605 -11.893  18.877  0.00  0.00    +0.110 C 
BRANCH  17  18
ATOM     18  C   UNL     1     -31.536 -12.637  19.682  0.00  0.00    +0.053 C 
BRANCH  18  19
ATOM     19  C   UNL     1     -30.149 -12.229  19.259  0.00  0.00    -0.028 A 
ATOM     20  C   UNL     1     -29.041 -13.032  19.566  0.00  0.00    +0.006 A 
ATOM     21  C   UNL     1     -27.767 -12.658  19.138  0.00  0.00    +0.020 A 
ATOM     22  C   UNL     1     -27.612 -11.485  18.397  0.00  0.00    +0.111 A 
ATOM     23  N   UNL     1     -28.696 -10.721  18.096  0.00  0.00    -0.263 NA
ATOM     24  C   UNL     1     -29.947 -11.065  18.502  0.00  0.00    +0.114 A 
ENDBRANCH  18  19
ENDBRANCH  17  18
ENDBRANCH  15  17
ENDBRANCH   2  15
TORSDOF 7
ENDMDL
MODEL 9
REMARK VINA RESULT:    -4.408      2.888      4.156
REMARK INTER + INTRA:          -8.129
REMARK INTER:                  -6.091
REMARK INTRA:                  -2.039
REMARK UNBOUND:                -1.917
REMARK  Name = 
REMARK  7 active torsions:
REMARK  status: ('A' for Active; 'I' for Inactive)
REMARK    1  A    between atoms: S_2  and  N_4
REMARK    2  A    between atoms: S_2  and  C_13
REMARK    3  A    between atoms: N_4  and  C_5
REMARK    4  A    between atoms: C_5  and  C_6
REMARK    5  A    between atoms: C_6  and  C_7
REMARK    6  A    between atoms: C_18  and  O_19
REMARK    7  A    between atoms: O_19  and  C_20
REMARK                            x       y       z     vdW  Elec       q    Type
REMARK                         _______ _______ _______ _____ _____    ______ ____
ROOT
ATOM      1  O   UNL     1     -30.177 -14.659  17.540  0.00  0.00    -0.153 OA
ATOM      2  S   UNL     1     -29.466 -13.600  16.744  0.00  0.00    +0.062 S 
ATOM      3  O   UNL     1     -28.250 -14.227  16.120  0.00  0.00    -0.153 OA
ENDROOT
BRANCH   2   4
ATOM      4  C   UNL     1     -30.557 -12.986  15.494  0.00  0.00    +0.147 A 
ATOM      5  C   UNL     1     -30.712 -13.719  14.308  0.00  0.00    +0.032 A 
ATOM      6  C   UNL     1     -31.574 -13.273  13.307  0.00  0.00    +0.002 A 
ATOM      7  C   UNL     1     -32.294 -12.091  13.481  0.00  0.00    +0.004 A 
ATOM      8  C   UNL     1     -32.159 -11.356  14.660  0.00  0.00    +0.048 A 
ATOM      9  C   UNL     1     -31.291 -11.796  15.682  0.00  0.00    +0.156 A 
BRANCH   9  10
ATOM     10  O   UNL     1     -31.145 -11.088  16.888  0.00  0.00    -0.404 OA
BRANCH  10  11
ATOM     11  C   UNL     1     -30.884  -9.692  17.006  0.00  0.00    +0.575 C 
ATOM     12  F   UNL     1     -30.223  -9.460  18.197  0.00  0.00    -0.133 F 
ATOM     13  F   UNL     1     -32.073  -8.984  17.011  0.00  0.00    -0.133 F 
ATOM     14  F   UNL     1     -30.083  -9.265  15.962  0.00  0.00    -0.133 F 
ENDBRANCH  10  11
ENDBRANCH   9  10
ENDBRANCH   2   4
BRANCH   2  15
ATOM     15  N   UNL     1     -28.987 -12.321  17.819  0.00  0.00    -0.190 NA
ATOM     16  H   UNL     1     -28.457 -11.625  17.245  0.00  0.00    +0.148 HD
BRANCH  15  17
ATOM     17  C   UNL     1     -28.089 -12.843  18.852  0.00  0.00    +0.110 C 
BRANCH  17  18
ATOM     18  C   UNL     1     -28.882 -13.236  20.101  0.00  0.00    +0.053 C 
BRANCH  18  19
ATOM     19  C   UNL     1     -29.950 -12.220  20.415  0.00  0.00    -0.028 A 
ATOM     20  C   UNL     1     -31.296 -12.481  20.120  0.00  0.00    +0.006 A 
ATOM     21  C   UNL     1     -32.277 -11.544  20.447  0.00  0.00    +0.020 A 
ATOM     22  C   UNL     1     -31.904 -10.354  21.074  0.00  0.00    +0.111 A 
ATOM     23  N   UNL     1     -30.596 -10.119  21.365  0.00  0.00    -0.263 NA
ATOM     24  C   UNL     1     -29.623 -11.015  21.057  0.00  0.00    +0.114 A 
ENDBRANCH  18  19
ENDBRANCH  17  18
ENDBRANCH  15  17
ENDBRANCH   2  15
TORSDOF 7
ENDMDL
