MODEL 1
REMARK VINA RESULT:    -4.281      0.000      0.000
REMARK INTER + INTRA:          -7.402
REMARK INTER:                  -6.157
REMARK INTRA:                  -1.244
REMARK UNBOUND:                -1.244
REMARK  Name = 
REMARK  10 active torsions:
REMARK  status: ('A' for Active; 'I' for Inactive)
REMARK    1  A    between atoms: C_1  and  O_2
REMARK    2  A    between atoms: O_2  and  C_3
REMARK    3  A    between atoms: C_6  and  C_7
REMARK    4  A    between atoms: C_8  and  C_9
REMARK    5  A    between atoms: C_8  and  C_14
REMARK    6  A    between atoms: C_9  and  C_10
REMARK    7  A    between atoms: C_10  and  C_11
REMARK    8  A    between atoms: C_11  and  O_13
REMARK    9  A    between atoms: C_23  and  O_25
REMARK   10  A    between atoms: O_25  and  C_26
REMARK                            x       y       z     vdW  Elec       q    Type
REMARK                         _______ _______ _______ _____ _____    ______ ____
ROOT
ATOM      1  C   UNL     1     -31.148 -12.960  17.418  0.00  0.00    +0.017 C 
ATOM      2  C   UNL     1     -30.183 -12.178  17.945  0.00  0.00    -0.014 C 
ENDROOT
BRANCH   2   3
ATOM      3  C   UNL     1     -29.230 -12.739  18.937  0.00  0.00    +0.106 A 
ATOM      4  N   UNL     1     -27.892 -12.810  18.714  0.00  0.00    -0.239 NA
ATOM      5  C   UNL     1     -27.239 -13.358  19.771  0.00  0.00    +0.079 A 
ATOM      6  C   UNL     1     -25.859 -13.559  19.827  0.00  0.00    +0.029 A 
ATOM      7  C   UNL     1     -25.308 -14.138  20.983  0.00  0.00    +0.002 A 
ATOM      8  C   UNL     1     -26.137 -14.507  22.062  0.00  0.00    +0.001 A 
ATOM      9  C   UNL     1     -27.524 -14.299  21.994  0.00  0.00    +0.017 A 
ATOM     10  C   UNL     1     -28.043 -13.724  20.837  0.00  0.00    +0.040 A 
ATOM     11  S   UNL     1     -29.636 -13.358  20.469  0.00  0.00    -0.067 S 
ENDBRANCH   2   3
BRANCH   1  15
ATOM     12  C   UNL     1     -33.963 -11.694  14.441  0.00  0.00    +0.124 A 
ATOM     13  C   UNL     1     -34.287 -11.631  15.798  0.00  0.00    +0.046 A 
ATOM     14  C   UNL     1     -33.369 -12.042  16.765  0.00  0.00    +0.015 A 
ATOM     15  C   UNL     1     -32.103 -12.509  16.388  0.00  0.00    +0.017 A 
ATOM     16  C   UNL     1     -31.765 -12.597  15.026  0.00  0.00    +0.131 A 
ATOM     17  C   UNL     1     -32.699 -12.182  14.055  0.00  0.00    +0.091 A 
BRANCH  12  19
ATOM     18  C   UNL     1     -34.954  -9.969  12.924  0.00  0.00    +0.277 C 
ATOM     19  O   UNL     1     -34.922 -11.267  13.509  0.00  0.00    -0.495 OA
ENDBRANCH  12  19
BRANCH  16  20
ATOM     20  O   UNL     1     -30.496 -13.090  14.676  0.00  0.00    -0.494 OA
ATOM     21  C   UNL     1     -30.262 -14.105  13.707  0.00  0.00    +0.277 C 
ENDBRANCH  16  20
ENDBRANCH   1  15
BRANCH   2  22
ATOM     22  C   UNL     1     -29.959 -10.758  17.459  0.00  0.00    +0.049 C 
BRANCH  22  23
ATOM     23  C   UNL     1     -29.895  -9.785  18.640  0.00  0.00    +0.125 C 
BRANCH  23  24
ATOM     24  C   UNL     1     -31.180  -9.028  18.763  0.00  0.00    +0.305 C 
ATOM     25  O   UNL     1     -31.622  -8.715  19.901  0.00  0.00    -0.251 OA
BRANCH  24  26
ATOM     26  O   UNL     1     -31.863  -8.632  17.618  0.00  0.00    -0.481 OA
ATOM     27  H   UNL     1     -31.696  -7.723  17.203  0.00  0.00    +0.295 HD
ENDBRANCH  24  26
ENDBRANCH  23  24
ENDBRANCH  22  23
ENDBRANCH   2  22
TORSDOF 8
ENDMDL
MODEL 2
REMARK VINA RESULT:    -4.196      2.839      7.679
REMARK INTER + INTRA:          -7.279
REMARK INTER:                  -6.449
REMARK INTRA:                  -0.830
REMARK UNBOUND:                -1.244
REMARK  Name = 
REMARK  10 active torsions:
REMARK  status: ('A' for Active; 'I' for Inactive)
REMARK    1  A    between atoms: C_1  and  O_2
REMARK    2  A    between atoms: O_2  and  C_3
REMARK    3  A    between atoms: C_6  and  C_7
REMARK    4  A    between atoms: C_8  and  C_9
REMARK    5  A    between atoms: C_8  and  C_14
REMARK    6  A    between atoms: C_9  and  C_10
REMARK    7  A    between atoms: C_10  and  C_11
REMARK    8  A    between atoms: C_11  and  O_13
REMARK    9  A    between atoms: C_23  and  O_25
REMARK   10  A    between atoms: O_25  and  C_26
REMARK                            x       y       z     vdW  Elec       q    Type
REMARK                         _______ _______ _______ _____ _____    ______ ____
ROOT
ATOM      1  C   UNL     1     -30.493 -12.572  17.510  0.00  0.00    +0.017 C 
ATOM      2  C   UNL     1     -30.767 -11.373  16.954  0.00  0.00    -0.014 C 
ENDROOT
BRANCH   2   3
ATOM      3  C   UNL     1     -31.770 -11.271  15.862  0.00  0.00    +0.106 A 
ATOM      4  N   UNL     1     -31.762 -12.087  14.777  0.00  0.00    -0.239 NA
ATOM      5  C   UNL     1     -32.780 -11.796  13.927  0.00  0.00    +0.079 A 
ATOM      6  C   UNL     1     -33.023 -12.467  12.728  0.00  0.00    +0.029 A 
ATOM      7  C   UNL     1     -34.114 -12.065  11.938  0.00  0.00    +0.002 A 
ATOM      8  C   UNL     1     -34.943 -11.005  12.353  0.00  0.00    +0.001 A 
ATOM      9  C   UNL     1     -34.690 -10.337  13.563  0.00  0.00    +0.017 A 
ATOM     10  C   UNL     1     -33.603 -10.756  14.325  0.00  0.00    +0.040 A 
ATOM     11  S   UNL     1     -33.056 -10.160  15.793  0.00  0.00    -0.067 S 
ENDBRANCH   2   3
BRANCH   1  15
ATOM     12  C   UNL     1     -27.749 -13.179  20.750  0.00  0.00    +0.124 A 
ATOM     13  C   UNL     1     -27.281 -12.898  19.464  0.00  0.00    +0.046 A 
ATOM     14  C   UNL     1     -28.175 -12.699  18.412  0.00  0.00    +0.015 A 
ATOM     15  C   UNL     1     -29.558 -12.763  18.635  0.00  0.00    +0.017 A 
ATOM     16  C   UNL     1     -30.048 -13.063  19.918  0.00  0.00    +0.131 A 
ATOM     17  C   UNL     1     -29.137 -13.265  20.975  0.00  0.00    +0.091 A 
BRANCH  12  19
ATOM     18  C   UNL     1     -25.852 -14.425  21.803  0.00  0.00    +0.277 C 
ATOM     19  O   UNL     1     -26.807 -13.369  21.773  0.00  0.00    -0.495 OA
ENDBRANCH  12  19
BRANCH  16  20
ATOM     20  O   UNL     1     -31.438 -13.143  20.107  0.00  0.00    -0.494 OA
ATOM     21  C   UNL     1     -32.250 -12.080  20.593  0.00  0.00    +0.277 C 
ENDBRANCH  16  20
ENDBRANCH   1  15
BRANCH   2  22
ATOM     22  C   UNL     1     -30.168 -10.090  17.500  0.00  0.00    +0.049 C 
BRANCH  22  23
ATOM     23  C   UNL     1     -31.174  -9.360  18.394  0.00  0.00    +0.125 C 
BRANCH  23  24
ATOM     24  C   UNL     1     -30.519  -8.917  19.664  0.00  0.00    +0.305 C 
ATOM     25  O   UNL     1     -30.987  -7.940  20.308  0.00  0.00    -0.251 OA
BRANCH  24  26
ATOM     26  O   UNL     1     -29.420  -9.615  20.156  0.00  0.00    -0.481 OA
ATOM     27  H   UNL     1     -28.739  -9.157  20.750  0.00  0.00    +0.295 HD
ENDBRANCH  24  26
ENDBRANCH  23  24
ENDBRANCH  22  23
ENDBRANCH   2  22
TORSDOF 8
ENDMDL
MODEL 3
REMARK VINA RESULT:    -4.181      1.896      3.827
REMARK INTER + INTRA:          -7.259
REMARK INTER:                  -6.071
REMARK INTRA:                  -1.188
REMARK UNBOUND:                -1.244
REMARK  Name = 
REMARK  10 active torsions:
REMARK  status: ('A' for Active; 'I' for Inactive)
REMARK    1  A    between atoms: C_1  and  O_2
REMARK    2  A    between atoms: O_2  and  C_3
REMARK    3  A    between atoms: C_6  and  C_7
REMARK    4  A    between atoms: C_8  and  C_9
REMARK    5  A    between atoms: C_8  and  C_14
REMARK    6  A    between atoms: C_9  and  C_10
REMARK    7  A    between atoms: C_10  and  C_11
REMARK    8  A    between atoms: C_11  and  O_13
REMARK    9  A    between atoms: C_23  and  O_25
REMARK   10  A    between atoms: O_25  and  C_26
REMARK                            x       y       z     vdW  Elec       q    Type
REMARK                         _______ _______ _______ _____ _____    ______ ____
ROOT
ATOM      1  C   UNL     1     -30.827 -10.936  18.317  0.00  0.00    +0.017 C 
ATOM      2  C   UNL     1     -30.592 -12.264  18.369  0.00  0.00    -0.014 C 
ENDROOT
BRANCH   2   3
ATOM      3  C   UNL     1     -29.518 -12.795  19.248  0.00  0.00    +0.106 A 
ATOM      4  N   UNL     1     -28.201 -12.740  18.917  0.00  0.00    -0.239 NA
ATOM      5  C   UNL     1     -27.422 -13.288  19.885  0.00  0.00    +0.079 A 
ATOM      6  C   UNL     1     -26.031 -13.373  19.822  0.00  0.00    +0.029 A 
ATOM      7  C   UNL     1     -25.341 -13.965  20.894  0.00  0.00    +0.002 A 
ATOM      8  C   UNL     1     -26.046 -14.461  22.009  0.00  0.00    +0.001 A 
ATOM      9  C   UNL     1     -27.447 -14.369  22.062  0.00  0.00    +0.017 A 
ATOM     10  C   UNL     1     -28.103 -13.777  20.986  0.00  0.00    +0.040 A 
ATOM     11  S   UNL     1     -29.746 -13.529  20.766  0.00  0.00    -0.067 S 
ENDBRANCH   2   3
BRANCH   1  15
ATOM     12  C   UNL     1     -33.925  -9.099  15.988  0.00  0.00    +0.124 A 
ATOM     13  C   UNL     1     -32.707  -9.449  15.402  0.00  0.00    +0.046 A 
ATOM     14  C   UNL     1     -31.701 -10.048  16.160  0.00  0.00    +0.015 A 
ATOM     15  C   UNL     1     -31.906 -10.321  17.520  0.00  0.00    +0.017 A 
ATOM     16  C   UNL     1     -33.118  -9.960  18.133  0.00  0.00    +0.131 A 
ATOM     17  C   UNL     1     -34.129  -9.354  17.359  0.00  0.00    +0.091 A 
BRANCH  12  19
ATOM     18  C   UNL     1     -35.010  -7.101  14.946  0.00  0.00    +0.277 C 
ATOM     19  O   UNL     1     -34.904  -8.501  15.180  0.00  0.00    -0.495 OA
ENDBRANCH  12  19
BRANCH  16  20
ATOM     20  O   UNL     1     -33.288 -10.227  19.502  0.00  0.00    -0.494 OA
ATOM     21  C   UNL     1     -33.771  -9.287  20.455  0.00  0.00    +0.277 C 
ENDBRANCH  16  20
ENDBRANCH   1  15
BRANCH   2  22
ATOM     22  C   UNL     1     -31.482 -13.256  17.644  0.00  0.00    +0.049 C 
BRANCH  22  23
ATOM     23  C   UNL     1     -30.674 -14.474  17.187  0.00  0.00    +0.125 C 
BRANCH  23  24
ATOM     24  C   UNL     1     -29.659 -14.073  16.163  0.00  0.00    +0.305 C 
ATOM     25  O   UNL     1     -30.022 -13.482  15.111  0.00  0.00    -0.251 OA
BRANCH  24  26
ATOM     26  O   UNL     1     -28.309 -14.316  16.396  0.00  0.00    -0.481 OA
ATOM     27  H   UNL     1     -27.890 -14.098  17.293  0.00  0.00    +0.295 HD
ENDBRANCH  24  26
ENDBRANCH  23  24
ENDBRANCH  22  23
ENDBRANCH   2  22
TORSDOF 8
ENDMDL
MODEL 4
REMARK VINA RESULT:    -3.967      3.069      5.752
REMARK INTER + INTRA:          -6.950
REMARK INTER:                  -5.788
REMARK INTRA:                  -1.162
REMARK UNBOUND:                -1.244
REMARK  Name = 
REMARK  10 active torsions:
REMARK  status: ('A' for Active; 'I' for Inactive)
REMARK    1  A    between atoms: C_1  and  O_2
REMARK    2  A    between atoms: O_2  and  C_3
REMARK    3  A    between atoms: C_6  and  C_7
REMARK    4  A    between atoms: C_8  and  C_9
REMARK    5  A    between atoms: C_8  and  C_14
REMARK    6  A    between atoms: C_9  and  C_10
REMARK    7  A    between atoms: C_10  and  C_11
REMARK    8  A    between atoms: C_11  and  O_13
REMARK    9  A    between atoms: C_23  and  O_25
REMARK   10  A    between atoms: O_25  and  C_26
REMARK                            x       y       z     vdW  Elec       q    Type
REMARK                         _______ _______ _______ _____ _____    ______ ____
ROOT
ATOM      1  C   UNL     1     -32.047 -12.292  16.757  0.00  0.00    +0.017 C 
ATOM      2  C   UNL     1     -31.549 -11.200  17.375  0.00  0.00    -0.014 C 
ENDROOT
BRANCH   2   3
ATOM      3  C   UNL     1     -32.291 -10.581  18.503  0.00  0.00    +0.106 A 
ATOM      4  N   UNL     1     -32.729  -9.295  18.478  0.00  0.00    -0.239 NA
ATOM      5  C   UNL     1     -33.380  -8.969  19.625  0.00  0.00    +0.079 A 
ATOM      6  C   UNL     1     -33.939  -7.717  19.885  0.00  0.00    +0.029 A 
ATOM      7  C   UNL     1     -34.588  -7.510  21.115  0.00  0.00    +0.002 A 
ATOM      8  C   UNL     1     -34.670  -8.549  22.062  0.00  0.00    +0.001 A 
ATOM      9  C   UNL     1     -34.104  -9.806  21.789  0.00  0.00    +0.017 A 
ATOM     10  C   UNL     1     -33.468  -9.983  20.563  0.00  0.00    +0.040 A 
ATOM     11  S   UNL     1     -32.709 -11.351  19.961  0.00  0.00    -0.067 S 
ENDBRANCH   2   3
BRANCH   1  15
ATOM     12  C   UNL     1     -29.986 -14.348  13.607  0.00  0.00    +0.124 A 
ATOM     13  C   UNL     1     -29.660 -14.585  14.944  0.00  0.00    +0.046 A 
ATOM     14  C   UNL     1     -30.332 -13.917  15.968  0.00  0.00    +0.015 A 
ATOM     15  C   UNL     1     -31.357 -13.009  15.668  0.00  0.00    +0.017 A 
ATOM     16  C   UNL     1     -31.688 -12.742  14.327  0.00  0.00    +0.131 A 
ATOM     17  C   UNL     1     -31.002 -13.421  13.299  0.00  0.00    +0.091 A 
BRANCH  12  19
ATOM     18  C   UNL     1     -27.968 -14.715  12.176  0.00  0.00    +0.277 C 
ATOM     19  O   UNL     1     -29.280 -15.048  12.617  0.00  0.00    -0.495 OA
ENDBRANCH  12  19
BRANCH  16  20
ATOM     20  O   UNL     1     -32.704 -11.811  14.055  0.00  0.00    -0.494 OA
ATOM     21  C   UNL     1     -33.838 -12.069  13.234  0.00  0.00    +0.277 C 
ENDBRANCH  16  20
ENDBRANCH   1  15
BRANCH   2  22
ATOM     22  C   UNL     1     -30.176 -10.652  17.031  0.00  0.00    +0.049 C 
BRANCH  22  23
ATOM     23  C   UNL     1     -29.358 -10.407  18.302  0.00  0.00    +0.125 C 
BRANCH  23  24
ATOM     24  C   UNL     1     -28.249 -11.405  18.411  0.00  0.00    +0.305 C 
ATOM     25  O   UNL     1     -28.511 -12.626  18.577  0.00  0.00    -0.251 OA
BRANCH  24  26
ATOM     26  O   UNL     1     -26.928 -10.987  18.283  0.00  0.00    -0.481 OA
ATOM     27  H   UNL     1     -26.687 -10.004  18.335  0.00  0.00    +0.295 HD
ENDBRANCH  24  26
ENDBRANCH  23  24
ENDBRANCH  22  23
ENDBRANCH   2  22
TORSDOF 8
ENDMDL
MODEL 5
REMARK VINA RESULT:    -3.945      1.929      2.634
REMARK INTER + INTRA:          -6.919
REMARK INTER:                  -5.533
REMARK INTRA:                  -1.385
REMARK UNBOUND:                -1.244
REMARK  Name = 
REMARK  10 active torsions:
REMARK  status: ('A' for Active; 'I' for Inactive)
REMARK    1  A    between atoms: C_1  and  O_2
REMARK    2  A    between atoms: O_2  and  C_3
REMARK    3  A    between atoms: C_6  and  C_7
REMARK    4  A    between atoms: C_8  and  C_9
REMARK    5  A    between atoms: C_8  and  C_14
REMARK    6  A    between atoms: C_9  and  C_10
REMARK    7  A    between atoms: C_10  and  C_11
REMARK    8  A    between atoms: C_11  and  O_13
REMARK    9  A    between atoms: C_23  and  O_25
REMARK   10  A    between atoms: O_25  and  C_26
REMARK                            x       y       z     vdW  Elec       q    Type
REMARK                         _______ _______ _______ _____ _____    ______ ____
ROOT
ATOM      1  C   UNL     1     -31.101 -11.972  18.017  0.00  0.00    +0.017 C 
ATOM      2  C   UNL     1     -30.140 -11.354  18.736  0.00  0.00    -0.014 C 
ENDROOT
BRANCH   2   3
ATOM      3  C   UNL     1     -29.140 -12.157  19.486  0.00  0.00    +0.106 A 
ATOM      4  N   UNL     1     -27.823 -12.187  19.157  0.00  0.00    -0.239 NA
ATOM      5  C   UNL     1     -27.118 -12.990  19.996  0.00  0.00    +0.079 A 
ATOM      6  C   UNL     1     -25.745 -13.216  19.901  0.00  0.00    +0.029 A 
ATOM      7  C   UNL     1     -25.135 -14.073  20.835  0.00  0.00    +0.002 A 
ATOM      8  C   UNL     1     -25.902 -14.688  21.845  0.00  0.00    +0.001 A 
ATOM      9  C   UNL     1     -27.284 -14.452  21.930  0.00  0.00    +0.017 A 
ATOM     10  C   UNL     1     -27.861 -13.600  20.992  0.00  0.00    +0.040 A 
ATOM     11  S   UNL     1     -29.463 -13.133  20.841  0.00  0.00    -0.067 S 
ENDBRANCH   2   3
BRANCH   1  15
ATOM     12  C   UNL     1     -33.964  -9.860  15.622  0.00  0.00    +0.124 A 
ATOM     13  C   UNL     1     -32.757 -10.294  15.070  0.00  0.00    +0.046 A 
ATOM     14  C   UNL     1     -31.827 -10.982  15.850  0.00  0.00    +0.015 A 
ATOM     15  C   UNL     1     -32.100 -11.262  17.196  0.00  0.00    +0.017 A 
ATOM     16  C   UNL     1     -33.302 -10.818  17.775  0.00  0.00    +0.131 A 
ATOM     17  C   UNL     1     -34.235 -10.121  16.980  0.00  0.00    +0.091 A 
BRANCH  12  19
ATOM     18  C   UNL     1     -34.976  -7.756  14.725  0.00  0.00    +0.277 C 
ATOM     19  O   UNL     1     -34.865  -9.174  14.793  0.00  0.00    -0.495 OA
ENDBRANCH  12  19
BRANCH  16  20
ATOM     20  O   UNL     1     -33.539 -11.093  19.132  0.00  0.00    -0.494 OA
ATOM     21  C   UNL     1     -34.043 -10.152  20.073  0.00  0.00    +0.277 C 
ENDBRANCH  16  20
ENDBRANCH   1  15
BRANCH   2  22
ATOM     22  C   UNL     1     -29.969  -9.846  18.701  0.00  0.00    +0.049 C 
BRANCH  22  23
ATOM     23  C   UNL     1     -30.432  -9.220  20.019  0.00  0.00    +0.125 C 
BRANCH  23  24
ATOM     24  C   UNL     1     -31.047  -7.878  19.773  0.00  0.00    +0.305 C 
ATOM     25  O   UNL     1     -30.750  -6.901  20.512  0.00  0.00    -0.251 OA
BRANCH  24  26
ATOM     26  O   UNL     1     -31.914  -7.702  18.699  0.00  0.00    -0.481 OA
ATOM     27  H   UNL     1     -32.015  -8.419  17.991  0.00  0.00    +0.295 HD
ENDBRANCH  24  26
ENDBRANCH  23  24
ENDBRANCH  22  23
ENDBRANCH   2  22
TORSDOF 8
ENDMDL
MODEL 6
REMARK VINA RESULT:    -3.839      3.329      5.968
REMARK INTER + INTRA:          -6.767
REMARK INTER:                  -5.291
REMARK INTRA:                  -1.476
REMARK UNBOUND:                -1.244
REMARK  Name = 
REMARK  10 active torsions:
REMARK  status: ('A' for Active; 'I' for Inactive)
REMARK    1  A    between atoms: C_1  and  O_2
REMARK    2  A    between atoms: O_2  and  C_3
REMARK    3  A    between atoms: C_6  and  C_7
REMARK    4  A    between atoms: C_8  and  C_9
REMARK    5  A    between atoms: C_8  and  C_14
REMARK    6  A    between atoms: C_9  and  C_10
REMARK    7  A    between atoms: C_10  and  C_11
REMARK    8  A    between atoms: C_11  and  O_13
REMARK    9  A    between atoms: C_23  and  O_25
REMARK   10  A    between atoms: O_25  and  C_26
REMARK                            x       y       z     vdW  Elec       q    Type
REMARK                         _______ _______ _______ _____ _____    ______ ____
ROOT
ATOM      1  C   UNL     1     -30.838 -10.391  17.324  0.00  0.00    +0.017 C 
ATOM      2  C   UNL     1     -31.689 -10.308  18.369  0.00  0.00    -0.014 C 
ENDROOT
BRANCH   2   3
ATOM      3  C   UNL     1     -31.841  -9.026  19.104  0.00  0.00    +0.106 A 
ATOM      4  N   UNL     1     -30.851  -8.490  19.864  0.00  0.00    -0.239 NA
ATOM      5  C   UNL     1     -31.236  -7.316  20.428  0.00  0.00    +0.079 A 
ATOM      6  C   UNL     1     -30.429  -6.540  21.261  0.00  0.00    +0.029 A 
ATOM      7  C   UNL     1     -30.950  -5.342  21.780  0.00  0.00    +0.002 A 
ATOM      8  C   UNL     1     -32.262  -4.938  21.463  0.00  0.00    +0.001 A 
ATOM      9  C   UNL     1     -33.065  -5.727  20.623  0.00  0.00    +0.017 A 
ATOM     10  C   UNL     1     -32.523  -6.908  20.123  0.00  0.00    +0.040 A 
ATOM     11  S   UNL     1     -33.229  -8.042  19.111  0.00  0.00    -0.067 S 
ENDBRANCH   2   3
BRANCH   1  15
ATOM     12  C   UNL     1     -30.386 -13.924  14.936  0.00  0.00    +0.124 A 
ATOM     13  C   UNL     1     -31.214 -12.881  14.514  0.00  0.00    +0.046 A 
ATOM     14  C   UNL     1     -31.358 -11.732  15.291  0.00  0.00    +0.015 A 
ATOM     15  C   UNL     1     -30.661 -11.602  16.500  0.00  0.00    +0.017 A 
ATOM     16  C   UNL     1     -29.838 -12.648  16.951  0.00  0.00    +0.131 A 
ATOM     17  C   UNL     1     -29.699 -13.807  16.160  0.00  0.00    +0.091 A 
BRANCH  12  19
ATOM     18  C   UNL     1     -29.670 -15.062  12.827  0.00  0.00    +0.277 C 
ATOM     19  O   UNL     1     -30.275 -15.058  14.116  0.00  0.00    -0.495 OA
ENDBRANCH  12  19
BRANCH  16  20
ATOM     20  O   UNL     1     -29.168 -12.499  18.178  0.00  0.00    -0.494 OA
ATOM     21  C   UNL     1     -27.794 -12.157  18.312  0.00  0.00    +0.277 C 
ENDBRANCH  16  20
ENDBRANCH   1  15
BRANCH   2  22
ATOM     22  C   UNL     1     -32.599 -11.463  18.744  0.00  0.00    +0.049 C 
BRANCH  22  23
ATOM     23  C   UNL     1     -32.478 -11.784  20.236  0.00  0.00    +0.125 C 
BRANCH  23  24
ATOM     24  C   UNL     1     -31.190 -12.493  20.515  0.00  0.00    +0.305 C 
ATOM     25  O   UNL     1     -30.291 -11.927  21.194  0.00  0.00    -0.251 OA
BRANCH  24  26
ATOM     26  O   UNL     1     -31.004 -13.795  20.061  0.00  0.00    -0.481 OA
ATOM     27  H   UNL     1     -31.771 -14.316  19.654  0.00  0.00    +0.295 HD
ENDBRANCH  24  26
ENDBRANCH  23  24
ENDBRANCH  22  23
ENDBRANCH   2  22
TORSDOF 8
ENDMDL
MODEL 7
REMARK VINA RESULT:    -3.753      3.329      5.872
REMARK INTER + INTRA:          -6.642
REMARK INTER:                  -5.297
REMARK INTRA:                  -1.345
REMARK UNBOUND:                -1.244
REMARK  Name = 
REMARK  10 active torsions:
REMARK  status: ('A' for Active; 'I' for Inactive)
REMARK    1  A    between atoms: C_1  and  O_2
REMARK    2  A    between atoms: O_2  and  C_3
REMARK    3  A    between atoms: C_6  and  C_7
REMARK    4  A    between atoms: C_8  and  C_9
REMARK    5  A    between atoms: C_8  and  C_14
REMARK    6  A    between atoms: C_9  and  C_10
REMARK    7  A    between atoms: C_10  and  C_11
REMARK    8  A    between atoms: C_11  and  O_13
REMARK    9  A    between atoms: C_23  and  O_25
REMARK   10  A    between atoms: O_25  and  C_26
REMARK                            x       y       z     vdW  Elec       q    Type
REMARK                         _______ _______ _______ _____ _____    ______ ____
ROOT
ATOM      1  C   UNL     1     -31.123 -10.445  16.987  0.00  0.00    +0.017 C 
ATOM      2  C   UNL     1     -31.861 -10.409  18.117  0.00  0.00    -0.014 C 
ENDROOT
BRANCH   2   3
ATOM      3  C   UNL     1     -31.994  -9.140  18.878  0.00  0.00    +0.106 A 
ATOM      4  N   UNL     1     -31.064  -8.718  19.774  0.00  0.00    -0.239 NA
ATOM      5  C   UNL     1     -31.414  -7.530  20.332  0.00  0.00    +0.079 A 
ATOM      6  C   UNL     1     -30.654  -6.854  21.287  0.00  0.00    +0.029 A 
ATOM      7  C   UNL     1     -31.131  -5.629  21.786  0.00  0.00    +0.002 A 
ATOM      8  C   UNL     1     -32.353  -5.099  21.328  0.00  0.00    +0.001 A 
ATOM      9  C   UNL     1     -33.110  -5.789  20.365  0.00  0.00    +0.017 A 
ATOM     10  C   UNL     1     -32.613  -6.999  19.889  0.00  0.00    +0.040 A 
ATOM     11  S   UNL     1     -33.282  -8.036  18.754  0.00  0.00    -0.067 S 
ENDBRANCH   2   3
BRANCH   1  15
ATOM     12  C   UNL     1     -30.645 -13.908  14.503  0.00  0.00    +0.124 A 
ATOM     13  C   UNL     1     -29.924 -13.782  15.693  0.00  0.00    +0.046 A 
ATOM     14  C   UNL     1     -30.083 -12.655  16.501  0.00  0.00    +0.015 A 
ATOM     15  C   UNL     1     -30.979 -11.642  16.136  0.00  0.00    +0.017 A 
ATOM     16  C   UNL     1     -31.700 -11.742  14.933  0.00  0.00    +0.131 A 
ATOM     17  C   UNL     1     -31.532 -12.883  14.122  0.00  0.00    +0.091 A 
BRANCH  12  19
ATOM     18  C   UNL     1     -30.061 -15.057  12.359  0.00  0.00    +0.277 C 
ATOM     19  O   UNL     1     -30.450 -15.062  13.728  0.00  0.00    -0.495 OA
ENDBRANCH  12  19
BRANCH  16  20
ATOM     20  O   UNL     1     -32.576 -10.701  14.581  0.00  0.00    -0.494 OA
ATOM     21  C   UNL     1     -33.990 -10.829  14.493  0.00  0.00    +0.277 C 
ENDBRANCH  16  20
ENDBRANCH   1  15
BRANCH   2  22
ATOM     22  C   UNL     1     -32.672 -11.608  18.574  0.00  0.00    +0.049 C 
BRANCH  22  23
ATOM     23  C   UNL     1     -32.395 -11.917  20.048  0.00  0.00    +0.125 C 
BRANCH  23  24
ATOM     24  C   UNL     1     -31.111 -12.671  20.192  0.00  0.00    +0.305 C 
ATOM     25  O   UNL     1     -30.132 -12.143  20.784  0.00  0.00    -0.251 OA
BRANCH  24  26
ATOM     26  O   UNL     1     -31.015 -13.972  19.710  0.00  0.00    -0.481 OA
ATOM     27  H   UNL     1     -30.233 -14.255  19.132  0.00  0.00    +0.295 HD
ENDBRANCH  24  26
ENDBRANCH  23  24
ENDBRANCH  22  23
ENDBRANCH   2  22
TORSDOF 8
ENDMDL
MODEL 8
REMARK VINA RESULT:    -3.724      3.943      6.321
REMARK INTER + INTRA:          -6.600
REMARK INTER:                  -5.365
REMARK INTRA:                  -1.236
REMARK UNBOUND:                -1.244
REMARK  Name = 
REMARK  10 active torsions:
REMARK  status: ('A' for Active; 'I' for Inactive)
REMARK    1  A    between atoms: C_1  and  O_2
REMARK    2  A    between atoms: O_2  and  C_3
REMARK    3  A    between atoms: C_6  and  C_7
REMARK    4  A    between atoms: C_8  and  C_9
REMARK    5  A    between atoms: C_8  and  C_14
REMARK    6  A    between atoms: C_9  and  C_10
REMARK    7  A    between atoms: C_10  and  C_11
REMARK    8  A    between atoms: C_11  and  O_13
REMARK    9  A    between atoms: C_23  and  O_25
REMARK   10  A    between atoms: O_25  and  C_26
REMARK                            x       y       z     vdW  Elec       q    Type
REMARK                         _______ _______ _______ _____ _____    ______ ____
ROOT
ATOM      1  C   UNL     1     -33.297 -10.397  17.298  0.00  0.00    +0.017 C 
ATOM      2  C   UNL     1     -32.042 -10.449  16.805  0.00  0.00    -0.014 C 
ENDROOT
BRANCH   2   3
ATOM      3  C   UNL     1     -31.691 -11.455  15.769  0.00  0.00    +0.106 A 
ATOM      4  N   UNL     1     -30.783 -12.444  15.979  0.00  0.00    -0.239 NA
ATOM      5  C   UNL     1     -30.643 -13.233  14.883  0.00  0.00    +0.079 A 
ATOM      6  C   UNL     1     -29.780 -14.327  14.805  0.00  0.00    +0.029 A 
ATOM      7  C   UNL     1     -29.730 -15.062  13.608  0.00  0.00    +0.002 A 
ATOM      8  C   UNL     1     -30.537 -14.698  12.512  0.00  0.00    +0.001 A 
ATOM      9  C   UNL     1     -31.403 -13.595  12.603  0.00  0.00    +0.017 A 
ATOM     10  C   UNL     1     -31.432 -12.885  13.800  0.00  0.00    +0.040 A 
ATOM     11  S   UNL     1     -32.349 -11.542  14.202  0.00  0.00    -0.067 S 
ENDBRANCH   2   3
BRANCH   1  15
ATOM     12  C   UNL     1     -34.579  -7.456  20.144  0.00  0.00    +0.124 A 
ATOM     13  C   UNL     1     -34.708  -7.222  18.773  0.00  0.00    +0.046 A 
ATOM     14  C   UNL     1     -34.293  -8.181  17.848  0.00  0.00    +0.015 A 
ATOM     15  C   UNL     1     -33.753  -9.399  18.284  0.00  0.00    +0.017 A 
ATOM     16  C   UNL     1     -33.598  -9.645  19.660  0.00  0.00    +0.131 A 
ATOM     17  C   UNL     1     -34.019  -8.670  20.587  0.00  0.00    +0.091 A 
BRANCH  12  19
ATOM     18  C   UNL     1     -34.762  -5.068  20.866  0.00  0.00    +0.277 C 
ATOM     19  O   UNL     1     -35.015  -6.459  21.031  0.00  0.00    -0.495 OA
ENDBRANCH  12  19
BRANCH  16  20
ATOM     20  O   UNL     1     -33.034 -10.866  20.068  0.00  0.00    -0.494 OA
ATOM     21  C   UNL     1     -32.890 -11.278  21.422  0.00  0.00    +0.277 C 
ENDBRANCH  16  20
ENDBRANCH   1  15
BRANCH   2  22
ATOM     22  C   UNL     1     -30.995  -9.420  17.188  0.00  0.00    +0.049 C 
BRANCH  22  23
ATOM     23  C   UNL     1     -29.772 -10.098  17.811  0.00  0.00    +0.125 C 
BRANCH  23  24
ATOM     24  C   UNL     1     -29.781  -9.931  19.298  0.00  0.00    +0.305 C 
ATOM     25  O   UNL     1     -29.695 -10.939  20.048  0.00  0.00    -0.251 OA
BRANCH  24  26
ATOM     26  O   UNL     1     -29.841  -8.655  19.849  0.00  0.00    -0.481 OA
ATOM     27  H   UNL     1     -29.061  -8.281  20.378  0.00  0.00    +0.295 HD
ENDBRANCH  24  26
ENDBRANCH  23  24
ENDBRANCH  22  23
ENDBRANCH   2  22
TORSDOF 8
ENDMDL
MODEL 9
REMARK VINA RESULT:    -3.269      3.560      6.622
REMARK INTER + INTRA:          -5.946
REMARK INTER:                  -4.845
REMARK INTRA:                  -1.101
REMARK UNBOUND:                -1.244
REMARK  Name = 
REMARK  10 active torsions:
REMARK  status: ('A' for Active; 'I' for Inactive)
REMARK    1  A    between atoms: C_1  and  O_2
REMARK    2  A    between atoms: O_2  and  C_3
REMARK    3  A    between atoms: C_6  and  C_7
REMARK    4  A    between atoms: C_8  and  C_9
REMARK    5  A    between atoms: C_8  and  C_14
REMARK    6  A    between atoms: C_9  and  C_10
REMARK    7  A    between atoms: C_10  and  C_11
REMARK    8  A    between atoms: C_11  and  O_13
REMARK    9  A    between atoms: C_23  and  O_25
REMARK   10  A    between atoms: O_25  and  C_26
REMARK                            x       y       z     vdW  Elec       q    Type
REMARK                         _______ _______ _______ _____ _____    ______ ____
ROOT
ATOM      1  C   UNL     1     -31.474 -10.013  17.183  0.00  0.00    +0.017 C 
ATOM      2  C   UNL     1     -31.761 -11.331  17.148  0.00  0.00    -0.014 C 
ENDROOT
BRANCH   2   3
ATOM      3  C   UNL     1     -31.422 -12.133  15.944  0.00  0.00    +0.106 A 
ATOM      4  N   UNL     1     -30.348 -12.962  15.889  0.00  0.00    -0.239 NA
ATOM      5  C   UNL     1     -30.258 -13.582  14.684  0.00  0.00    +0.079 A 
ATOM      6  C   UNL     1     -29.256 -14.490  14.337  0.00  0.00    +0.029 A 
ATOM      7  C   UNL     1     -29.279 -15.062  13.054  0.00  0.00    +0.002 A 
ATOM      8  C   UNL     1     -30.296 -14.724  12.139  0.00  0.00    +0.001 A 
ATOM      9  C   UNL     1     -31.300 -13.809  12.499  0.00  0.00    +0.017 A 
ATOM     10  C   UNL     1     -31.253 -13.258  13.777  0.00  0.00    +0.040 A 
ATOM     11  S   UNL     1     -32.297 -12.154  14.484  0.00  0.00    -0.067 S 
ENDBRANCH   2   3
BRANCH   1  15
ATOM     12  C   UNL     1     -32.180  -7.550  20.623  0.00  0.00    +0.124 A 
ATOM     13  C   UNL     1     -30.937  -8.155  20.425  0.00  0.00    +0.046 A 
ATOM     14  C   UNL     1     -30.709  -8.955  19.304  0.00  0.00    +0.015 A 
ATOM     15  C   UNL     1     -31.720  -9.148  18.354  0.00  0.00    +0.017 A 
ATOM     16  C   UNL     1     -32.984  -8.562  18.545  0.00  0.00    +0.131 A 
ATOM     17  C   UNL     1     -33.206  -7.757  19.681  0.00  0.00    +0.091 A 
BRANCH  12  19
ATOM     18  C   UNL     1     -32.271  -5.332  21.777  0.00  0.00    +0.277 C 
ATOM     19  O   UNL     1     -32.357  -6.754  21.765  0.00  0.00    -0.495 OA
ENDBRANCH  12  19
BRANCH  16  20
ATOM     20  O   UNL     1     -33.986  -8.791  17.586  0.00  0.00    -0.494 OA
ATOM     21  C   UNL     1     -34.857  -7.790  17.072  0.00  0.00    +0.277 C 
ENDBRANCH  16  20
ENDBRANCH   1  15
BRANCH   2  22
ATOM     22  C   UNL     1     -32.311 -12.057  18.362  0.00  0.00    +0.049 C 
BRANCH  22  23
ATOM     23  C   UNL     1     -31.260 -13.002  18.950  0.00  0.00    +0.125 C 
BRANCH  23  24
ATOM     24  C   UNL     1     -30.937 -12.613  20.358  0.00  0.00    +0.305 C 
ATOM     25  O   UNL     1     -29.864 -13.005  20.891  0.00  0.00    -0.251 OA
BRANCH  24  26
ATOM     26  O   UNL     1     -31.802 -11.782  21.062  0.00  0.00    -0.481 OA
ATOM     27  H   UNL     1     -31.791 -11.759  22.074  0.00  0.00    +0.295 HD
ENDBRANCH  24  26
ENDBRANCH  23  24
ENDBRANCH  22  23
ENDBRANCH   2  22
TORSDOF 8
ENDMDL
