MODEL 1
REMARK VINA RESULT:    -5.884      0.000      0.000
REMARK INTER + INTRA:          -7.165
REMARK INTER:                  -6.916
REMARK INTRA:                  -0.249
REMARK UNBOUND:                -0.249
REMARK  Name = 
REMARK  3 active torsions:
REMARK  status: ('A' for Active; 'I' for Inactive)
REMARK    1  A    between atoms: C_2  and  C_5
REMARK    2  A    between atoms: C_9  and  N_11
REMARK    3  A    between atoms: C_14  and  C_15
REMARK                            x       y       z     vdW  Elec       q    Type
REMARK                         _______ _______ _______ _____ _____    ______ ____
ROOT
ATOM      1  N   UNL     1     -30.244 -14.132  15.598  0.00  0.00    -0.284 N 
ATOM      2  C   UNL     1     -30.070 -13.223  16.695  0.00  0.00    +0.221 A 
ATOM      3  N   UNL     1     -29.258 -13.570  17.728  0.00  0.00    -0.214 NA
ATOM      4  C   UNL     1     -29.073 -12.757  18.803  0.00  0.00    +0.084 A 
ATOM      5  C   UNL     1     -29.773 -11.530  18.869  0.00  0.00    +0.028 A 
ATOM      6  C   UNL     1     -29.701 -10.658  19.975  0.00  0.00    +0.032 A 
ATOM      7  C   UNL     1     -30.421  -9.456  19.974  0.00  0.00    +0.042 A 
ATOM      8 CL   UNL     1     -30.320  -8.374  21.350  0.00  0.00    -0.084 Cl
ATOM      9  C   UNL     1     -31.225  -9.121  18.881  0.00  0.00    +0.022 A 
ATOM     10  C   UNL     1     -31.325  -9.988  17.791  0.00  0.00    +0.030 A 
ATOM     11  C   UNL     1     -30.611 -11.192  17.782  0.00  0.00    +0.077 A 
ATOM     12  N   UNL     1     -30.740 -12.042  16.733  0.00  0.00    -0.214 NA
ATOM     13  H   UNL     1     -29.955 -15.125  15.745  0.00  0.00    +0.155 HD
ENDROOT
BRANCH   1  18
ATOM     14  C   UNL     1     -32.700 -12.631  13.196  0.00  0.00    +0.057 A 
ATOM     15  C   UNL     1     -32.213 -13.126  11.974  0.00  0.00    +0.012 A 
ATOM     16  C   UNL     1     -31.104 -13.975  11.949  0.00  0.00    +0.002 A 
ATOM     17  C   UNL     1     -30.452 -14.316  13.135  0.00  0.00    +0.023 A 
ATOM     18  C   UNL     1     -30.892 -13.790  14.362  0.00  0.00    +0.034 A 
ATOM     19  C   UNL     1     -32.022 -12.957  14.384  0.00  0.00    +0.035 A 
BRANCH  14  21
ATOM     20  F   UNL     1     -33.556 -10.531  13.921  0.00  0.00    -0.166 F 
ATOM     21  C   UNL     1     -33.874 -11.683  13.224  0.00  0.00    +0.417 C 
ATOM     22  F   UNL     1     -34.944 -12.302  13.840  0.00  0.00    -0.166 F 
ATOM     23  F   UNL     1     -34.239 -11.324  11.938  0.00  0.00    -0.166 F 
ENDBRANCH  14  21
ENDBRANCH   1  18
BRANCH   4  24
ATOM     24  C   UNL     1     -28.133 -13.206  19.852  0.00  0.00    +0.001 A 
ATOM     25  C   UNL     1     -28.627 -13.687  21.074  0.00  0.00    +0.010 A 
ATOM     26  C   UNL     1     -27.747 -14.147  22.059  0.00  0.00    +0.001 A 
ATOM     27  C   UNL     1     -26.369 -14.142  21.823  0.00  0.00    +0.000 A 
ATOM     28  C   UNL     1     -25.870 -13.685  20.601  0.00  0.00    +0.001 A 
ATOM     29  C   UNL     1     -26.747 -13.225  19.615  0.00  0.00    +0.010 A 
ENDBRANCH   4  24
TORSDOF 3
ENDMDL
MODEL 2
REMARK VINA RESULT:    -5.304      3.227      5.824
REMARK INTER + INTRA:          -6.484
REMARK INTER:                  -6.285
REMARK INTRA:                  -0.198
REMARK UNBOUND:                -0.249
REMARK  Name = 
REMARK  3 active torsions:
REMARK  status: ('A' for Active; 'I' for Inactive)
REMARK    1  A    between atoms: C_2  and  C_5
REMARK    2  A    between atoms: C_9  and  N_11
REMARK    3  A    between atoms: C_14  and  C_15
REMARK                            x       y       z     vdW  Elec       q    Type
REMARK                         _______ _______ _______ _____ _____    ______ ____
ROOT
ATOM      1  N   UNL     1     -30.108  -8.842  20.481  0.00  0.00    -0.284 N 
ATOM      2  C   UNL     1     -29.847 -10.044  19.743  0.00  0.00    +0.221 A 
ATOM      3  N   UNL     1     -28.929 -10.930  20.211  0.00  0.00    -0.214 NA
ATOM      4  C   UNL     1     -28.626 -12.075  19.542  0.00  0.00    +0.084 A 
ATOM      5  C   UNL     1     -29.257 -12.337  18.303  0.00  0.00    +0.028 A 
ATOM      6  C   UNL     1     -28.955 -13.460  17.505  0.00  0.00    +0.032 A 
ATOM      7  C   UNL     1     -29.619 -13.660  16.289  0.00  0.00    +0.042 A 
ATOM      8 CL   UNL     1     -29.242 -15.062  15.305  0.00  0.00    -0.084 Cl
ATOM      9  C   UNL     1     -30.577 -12.740  15.853  0.00  0.00    +0.022 A 
ATOM     10  C   UNL     1     -30.867 -11.612  16.621  0.00  0.00    +0.030 A 
ATOM     11  C   UNL     1     -30.208 -11.401  17.838  0.00  0.00    +0.077 A 
ATOM     12  N   UNL     1     -30.474 -10.285  18.562  0.00  0.00    -0.214 NA
ATOM     13  H   UNL     1     -29.409  -8.560  21.206  0.00  0.00    +0.155 HD
ENDROOT
BRANCH   1  18
ATOM     14  C   UNL     1     -33.214  -7.433  18.923  0.00  0.00    +0.057 A 
ATOM     15  C   UNL     1     -33.329  -6.215  19.615  0.00  0.00    +0.012 A 
ATOM     16  C   UNL     1     -32.370  -5.849  20.563  0.00  0.00    +0.002 A 
ATOM     17  C   UNL     1     -31.304  -6.703  20.852  0.00  0.00    +0.023 A 
ATOM     18  C   UNL     1     -31.200  -7.948  20.209  0.00  0.00    +0.034 A 
ATOM     19  C   UNL     1     -32.152  -8.300  19.239  0.00  0.00    +0.035 A 
BRANCH  14  21
ATOM     20  F   UNL     1     -35.061  -6.771  17.576  0.00  0.00    -0.166 F 
ATOM     21  C   UNL     1     -34.268  -7.849  17.927  0.00  0.00    +0.417 C 
ATOM     22  F   UNL     1     -35.062  -8.830  18.489  0.00  0.00    -0.166 F 
ATOM     23  F   UNL     1     -33.680  -8.347  16.777  0.00  0.00    -0.166 F 
ENDBRANCH  14  21
ENDBRANCH   1  18
BRANCH   4  24
ATOM     24  C   UNL     1     -27.648 -12.995  20.159  0.00  0.00    +0.001 A 
ATOM     25  C   UNL     1     -26.291 -12.908  19.811  0.00  0.00    +0.010 A 
ATOM     26  C   UNL     1     -25.352 -13.751  20.415  0.00  0.00    +0.001 A 
ATOM     27  C   UNL     1     -25.761 -14.675  21.381  0.00  0.00    +0.000 A 
ATOM     28  C   UNL     1     -27.107 -14.753  21.749  0.00  0.00    +0.001 A 
ATOM     29  C   UNL     1     -28.047 -13.912  21.147  0.00  0.00    +0.010 A 
ENDBRANCH   4  24
TORSDOF 3
ENDMDL
MODEL 3
REMARK VINA RESULT:    -4.259      4.577      7.637
REMARK INTER + INTRA:          -5.255
REMARK INTER:                  -5.486
REMARK INTRA:                   0.231
REMARK UNBOUND:                -0.249
REMARK  Name = 
REMARK  3 active torsions:
REMARK  status: ('A' for Active; 'I' for Inactive)
REMARK    1  A    between atoms: C_2  and  C_5
REMARK    2  A    between atoms: C_9  and  N_11
REMARK    3  A    between atoms: C_14  and  C_15
REMARK                            x       y       z     vdW  Elec       q    Type
REMARK                         _______ _______ _______ _____ _____    ______ ____
ROOT
ATOM      1  N   UNL     1     -30.357 -10.429  18.800  0.00  0.00    -0.284 N 
ATOM      2  C   UNL     1     -31.080 -10.713  17.593  0.00  0.00    +0.221 A 
ATOM      3  N   UNL     1     -30.617 -11.669  16.746  0.00  0.00    -0.214 NA
ATOM      4  C   UNL     1     -31.249 -11.965  15.578  0.00  0.00    +0.084 A 
ATOM      5  C   UNL     1     -32.403 -11.232  15.214  0.00  0.00    +0.028 A 
ATOM      6  C   UNL     1     -33.082 -11.418  13.992  0.00  0.00    +0.032 A 
ATOM      7  C   UNL     1     -34.220 -10.658  13.695  0.00  0.00    +0.042 A 
ATOM      8 CL   UNL     1     -35.062 -10.900  12.175  0.00  0.00    -0.084 Cl
ATOM      9  C   UNL     1     -34.682  -9.702  14.604  0.00  0.00    +0.022 A 
ATOM     10  C   UNL     1     -34.004  -9.491  15.805  0.00  0.00    +0.030 A 
ATOM     11  C   UNL     1     -32.864 -10.243  16.111  0.00  0.00    +0.077 A 
ATOM     12  N   UNL     1     -32.194 -10.008  17.267  0.00  0.00    -0.214 NA
ATOM     13  H   UNL     1     -29.373 -10.774  18.864  0.00  0.00    +0.155 HD
ENDROOT
BRANCH   1  18
ATOM     14  C   UNL     1     -31.207  -7.380  20.809  0.00  0.00    +0.057 A 
ATOM     15  C   UNL     1     -31.792  -7.965  21.945  0.00  0.00    +0.012 A 
ATOM     16  C   UNL     1     -31.874  -9.355  22.060  0.00  0.00    +0.002 A 
ATOM     17  C   UNL     1     -31.401 -10.175  21.033  0.00  0.00    +0.023 A 
ATOM     18  C   UNL     1     -30.859  -9.608  19.867  0.00  0.00    +0.034 A 
ATOM     19  C   UNL     1     -30.757  -8.212  19.768  0.00  0.00    +0.035 A 
BRANCH  14  21
ATOM     20  F   UNL     1     -31.726  -5.261  21.762  0.00  0.00    -0.166 F 
ATOM     21  C   UNL     1     -31.151  -5.879  20.665  0.00  0.00    +0.417 C 
ATOM     22  F   UNL     1     -31.838  -5.506  19.525  0.00  0.00    -0.166 F 
ATOM     23  F   UNL     1     -29.839  -5.448  20.564  0.00  0.00    -0.166 F 
ENDBRANCH  14  21
ENDBRANCH   1  18
BRANCH   4  24
ATOM     24  C   UNL     1     -30.691 -13.054  14.749  0.00  0.00    +0.001 A 
ATOM     25  C   UNL     1     -31.030 -13.142  13.390  0.00  0.00    +0.010 A 
ATOM     26  C   UNL     1     -30.479 -14.148  12.590  0.00  0.00    +0.001 A 
ATOM     27  C   UNL     1     -29.576 -15.062  13.138  0.00  0.00    +0.000 A 
ATOM     28  C   UNL     1     -29.216 -14.968  14.485  0.00  0.00    +0.001 A 
ATOM     29  C   UNL     1     -29.764 -13.964  15.287  0.00  0.00    +0.010 A 
ENDBRANCH   4  24
TORSDOF 3
ENDMDL
MODEL 4
REMARK VINA RESULT:    -4.085      4.388      7.400
REMARK INTER + INTRA:          -5.051
REMARK INTER:                  -5.810
REMARK INTRA:                   0.760
REMARK UNBOUND:                -0.249
REMARK  Name = 
REMARK  3 active torsions:
REMARK  status: ('A' for Active; 'I' for Inactive)
REMARK    1  A    between atoms: C_2  and  C_5
REMARK    2  A    between atoms: C_9  and  N_11
REMARK    3  A    between atoms: C_14  and  C_15
REMARK                            x       y       z     vdW  Elec       q    Type
REMARK                         _______ _______ _______ _____ _____    ______ ____
ROOT
ATOM      1  N   UNL     1     -30.672  -9.342  18.776  0.00  0.00    -0.284 N 
ATOM      2  C   UNL     1     -31.331  -9.867  17.615  0.00  0.00    +0.221 A 
ATOM      3  N   UNL     1     -30.839 -10.982  17.014  0.00  0.00    -0.214 NA
ATOM      4  C   UNL     1     -31.410 -11.512  15.899  0.00  0.00    +0.084 A 
ATOM      5  C   UNL     1     -32.528 -10.864  15.323  0.00  0.00    +0.028 A 
ATOM      6  C   UNL     1     -33.141 -11.297  14.128  0.00  0.00    +0.032 A 
ATOM      7  C   UNL     1     -34.246 -10.609  13.613  0.00  0.00    +0.042 A 
ATOM      8 CL   UNL     1     -35.006 -11.158  12.131  0.00  0.00    -0.084 Cl
ATOM      9  C   UNL     1     -34.740  -9.481  14.274  0.00  0.00    +0.022 A 
ATOM     10  C   UNL     1     -34.127  -9.027  15.443  0.00  0.00    +0.030 A 
ATOM     11  C   UNL     1     -33.020  -9.707  15.966  0.00  0.00    +0.077 A 
ATOM     12  N   UNL     1     -32.412  -9.239  17.084  0.00  0.00    -0.214 NA
ATOM     13  H   UNL     1     -29.699  -9.672  18.969  0.00  0.00    +0.155 HD
ENDROOT
BRANCH   1  18
ATOM     14  C   UNL     1     -32.945  -6.630  20.015  0.00  0.00    +0.057 A 
ATOM     15  C   UNL     1     -32.301  -6.270  21.211  0.00  0.00    +0.012 A 
ATOM     16  C   UNL     1     -31.109  -6.894  21.587  0.00  0.00    +0.002 A 
ATOM     17  C   UNL     1     -30.562  -7.902  20.791  0.00  0.00    +0.023 A 
ATOM     18  C   UNL     1     -31.218  -8.313  19.618  0.00  0.00    +0.034 A 
ATOM     19  C   UNL     1     -32.402  -7.665  19.232  0.00  0.00    +0.035 A 
BRANCH  14  21
ATOM     20  F   UNL     1     -34.901  -5.484  20.741  0.00  0.00    -0.166 F 
ATOM     21  C   UNL     1     -34.252  -5.985  19.626  0.00  0.00    +0.417 C 
ATOM     22  F   UNL     1     -35.061  -6.926  19.018  0.00  0.00    -0.166 F 
ATOM     23  F   UNL     1     -34.035  -4.939  18.745  0.00  0.00    -0.166 F 
ENDBRANCH  14  21
ENDBRANCH   1  18
BRANCH   4  24
ATOM     24  C   UNL     1     -30.826 -12.754  15.349  0.00  0.00    +0.001 A 
ATOM     25  C   UNL     1     -30.992 -13.062  13.990  0.00  0.00    +0.010 A 
ATOM     26  C   UNL     1     -30.413 -14.217  13.453  0.00  0.00    +0.001 A 
ATOM     27  C   UNL     1     -29.655 -15.062  14.267  0.00  0.00    +0.000 A 
ATOM     28  C   UNL     1     -29.467 -14.751  15.617  0.00  0.00    +0.001 A 
ATOM     29  C   UNL     1     -30.043 -13.598  16.156  0.00  0.00    +0.010 A 
ENDBRANCH   4  24
TORSDOF 3
ENDMDL
MODEL 5
REMARK VINA RESULT:    -3.761      3.841      6.888
REMARK INTER + INTRA:          -4.670
REMARK INTER:                  -4.547
REMARK INTRA:                  -0.123
REMARK UNBOUND:                -0.249
REMARK  Name = 
REMARK  3 active torsions:
REMARK  status: ('A' for Active; 'I' for Inactive)
REMARK    1  A    between atoms: C_2  and  C_5
REMARK    2  A    between atoms: C_9  and  N_11
REMARK    3  A    between atoms: C_14  and  C_15
REMARK                            x       y       z     vdW  Elec       q    Type
REMARK                         _______ _______ _______ _____ _____    ______ ____
ROOT
ATOM      1  N   UNL     1     -33.348 -10.538  18.933  0.00  0.00    -0.284 N 
ATOM      2  C   UNL     1     -32.131 -11.291  19.036  0.00  0.00    +0.221 A 
ATOM      3  N   UNL     1     -31.735 -12.067  17.994  0.00  0.00    -0.214 NA
ATOM      4  C   UNL     1     -30.602 -12.818  18.044  0.00  0.00    +0.084 A 
ATOM      5  C   UNL     1     -29.831 -12.823  19.230  0.00  0.00    +0.028 A 
ATOM      6  C   UNL     1     -28.683 -13.625  19.402  0.00  0.00    +0.032 A 
ATOM      7  C   UNL     1     -27.964 -13.580  20.602  0.00  0.00    +0.042 A 
ATOM      8 CL   UNL     1     -26.534 -14.575  20.805  0.00  0.00    -0.084 Cl
ATOM      9  C   UNL     1     -28.388 -12.749  21.643  0.00  0.00    +0.022 A 
ATOM     10  C   UNL     1     -29.536 -11.969  21.496  0.00  0.00    +0.030 A 
ATOM     11  C   UNL     1     -30.264 -12.008  20.300  0.00  0.00    +0.077 A 
ATOM     12  N   UNL     1     -31.396 -11.271  20.178  0.00  0.00    -0.214 NA
ATOM     13  H   UNL     1     -34.018 -10.805  18.176  0.00  0.00    +0.155 HD
ENDROOT
BRANCH   1  18
ATOM     14  C   UNL     1     -34.033  -7.154  20.394  0.00  0.00    +0.057 A 
ATOM     15  C   UNL     1     -34.494  -7.506  21.674  0.00  0.00    +0.012 A 
ATOM     16  C   UNL     1     -34.546  -8.847  22.062  0.00  0.00    +0.002 A 
ATOM     17  C   UNL     1     -34.167  -9.852  21.169  0.00  0.00    +0.023 A 
ATOM     18  C   UNL     1     -33.752  -9.523  19.868  0.00  0.00    +0.034 A 
ATOM     19  C   UNL     1     -33.678  -8.173  19.492  0.00  0.00    +0.035 A 
BRANCH  14  21
ATOM     20  F   UNL     1     -32.821  -5.105  20.326  0.00  0.00    -0.166 F 
ATOM     21  C   UNL     1     -34.012  -5.709  19.960  0.00  0.00    +0.417 C 
ATOM     22  F   UNL     1     -35.061  -5.038  20.559  0.00  0.00    -0.166 F 
ATOM     23  F   UNL     1     -34.140  -5.612  18.585  0.00  0.00    -0.166 F 
ENDBRANCH  14  21
ENDBRANCH   1  18
BRANCH   4  24
ATOM     24  C   UNL     1     -30.234 -13.592  16.840  0.00  0.00    +0.001 A 
ATOM     25  C   UNL     1     -31.235 -14.198  16.065  0.00  0.00    +0.010 A 
ATOM     26  C   UNL     1     -30.899 -14.902  14.905  0.00  0.00    +0.001 A 
ATOM     27  C   UNL     1     -29.563 -14.992  14.503  0.00  0.00    +0.000 A 
ATOM     28  C   UNL     1     -28.563 -14.372  15.257  0.00  0.00    +0.001 A 
ATOM     29  C   UNL     1     -28.895 -13.668  16.417  0.00  0.00    +0.010 A 
ENDBRANCH   4  24
TORSDOF 3
ENDMDL
MODEL 6
REMARK VINA RESULT:    -3.436      4.019      7.194
REMARK INTER + INTRA:          -4.288
REMARK INTER:                  -4.872
REMARK INTRA:                   0.584
REMARK UNBOUND:                -0.249
REMARK  Name = 
REMARK  3 active torsions:
REMARK  status: ('A' for Active; 'I' for Inactive)
REMARK    1  A    between atoms: C_2  and  C_5
REMARK    2  A    between atoms: C_9  and  N_11
REMARK    3  A    between atoms: C_14  and  C_15
REMARK                            x       y       z     vdW  Elec       q    Type
REMARK                         _______ _______ _______ _____ _____    ______ ____
ROOT
ATOM      1  N   UNL     1     -32.857  -9.233  17.897  0.00  0.00    -0.284 N 
ATOM      2  C   UNL     1     -31.854 -10.227  18.150  0.00  0.00    +0.221 A 
ATOM      3  N   UNL     1     -31.572 -11.150  17.193  0.00  0.00    -0.214 NA
ATOM      4  C   UNL     1     -30.646 -12.128  17.385  0.00  0.00    +0.084 A 
ATOM      5  C   UNL     1     -29.981 -12.212  18.631  0.00  0.00    +0.028 A 
ATOM      6  C   UNL     1     -29.060 -13.233  18.948  0.00  0.00    +0.032 A 
ATOM      7  C   UNL     1     -28.436 -13.256  20.201  0.00  0.00    +0.042 A 
ATOM      8 CL   UNL     1     -27.288 -14.525  20.585  0.00  0.00    -0.084 Cl
ATOM      9  C   UNL     1     -28.733 -12.273  21.151  0.00  0.00    +0.022 A 
ATOM     10  C   UNL     1     -29.661 -11.273  20.859  0.00  0.00    +0.030 A 
ATOM     11  C   UNL     1     -30.292 -11.241  19.609  0.00  0.00    +0.077 A 
ATOM     12  N   UNL     1     -31.216 -10.283  19.347  0.00  0.00    -0.214 NA
ATOM     13  H   UNL     1     -33.516  -9.403  17.103  0.00  0.00    +0.155 HD
ENDROOT
BRANCH   1  18
ATOM     14  C   UNL     1     -32.203  -6.423  20.291  0.00  0.00    +0.057 A 
ATOM     15  C   UNL     1     -33.489  -5.866  20.405  0.00  0.00    +0.012 A 
ATOM     16  C   UNL     1     -34.568  -6.437  19.724  0.00  0.00    +0.002 A 
ATOM     17  C   UNL     1     -34.371  -7.547  18.901  0.00  0.00    +0.023 A 
ATOM     18  C   UNL     1     -33.085  -8.085  18.732  0.00  0.00    +0.034 A 
ATOM     19  C   UNL     1     -32.009  -7.524  19.438  0.00  0.00    +0.035 A 
BRANCH  14  21
ATOM     20  F   UNL     1     -30.326  -4.967  20.129  0.00  0.00    -0.166 F 
ATOM     21  C   UNL     1     -31.030  -5.786  20.994  0.00  0.00    +0.417 C 
ATOM     22  F   UNL     1     -30.188  -6.777  21.462  0.00  0.00    -0.166 F 
ATOM     23  F   UNL     1     -31.461  -5.018  22.062  0.00  0.00    -0.166 F 
ENDBRANCH  14  21
ENDBRANCH   1  18
BRANCH   4  24
ATOM     24  C   UNL     1     -30.379 -13.054  16.265  0.00  0.00    +0.001 A 
ATOM     25  C   UNL     1     -31.216 -13.048  15.138  0.00  0.00    +0.010 A 
ATOM     26  C   UNL     1     -30.951 -13.896  14.058  0.00  0.00    +0.001 A 
ATOM     27  C   UNL     1     -29.840 -14.744  14.091  0.00  0.00    +0.000 A 
ATOM     28  C   UNL     1     -28.989 -14.740  15.200  0.00  0.00    +0.001 A 
ATOM     29  C   UNL     1     -29.252 -13.894  16.280  0.00  0.00    +0.010 A 
ENDBRANCH   4  24
TORSDOF 3
ENDMDL
