ligand8.pdb
 OpenBabel05162522553D

 43 46  0  0  1  0  0  0  0  0999 V2000
  -30.2440  -14.1320   15.5980 N   0  0  0  0  0  0  0  0  0  0  0  0
  -30.0700  -13.2230   16.6950 C   0  0  0  0  0  0  0  0  0  0  0  0
  -29.2580  -13.5700   17.7280 N   0  0  0  0  0  0  0  0  0  0  0  0
  -29.0730  -12.7570   18.8030 C   0  0  2  0  0  0  0  0  0  0  0  0
  -29.7730  -11.5300   18.8690 C   0  0  0  0  0  0  0  0  0  0  0  0
  -29.7010  -10.6580   19.9750 C   0  0  0  0  0  0  0  0  0  0  0  0
  -30.4210   -9.4560   19.9740 C   0  0  0  0  0  0  0  0  0  0  0  0
  -30.3200   -8.3740   21.3500 Cl  0  0  0  0  0  0  0  0  0  0  0  0
  -31.2250   -9.1210   18.8810 C   0  0  0  0  0  0  0  0  0  0  0  0
  -31.3250   -9.9880   17.7910 C   0  0  0  0  0  0  0  0  0  0  0  0
  -30.6110  -11.1920   17.7820 C   0  0  0  0  0  0  0  0  0  0  0  0
  -30.7400  -12.0420   16.7330 N   0  0  0  0  0  0  0  0  0  0  0  0
  -29.9550  -15.1250   15.7450 H   0  0  0  0  0  0  0  0  0  0  0  0
  -32.7000  -12.6310   13.1960 C   0  0  0  0  0  0  0  0  0  0  0  0
  -32.2130  -13.1260   11.9740 C   0  0  0  0  0  0  0  0  0  0  0  0
  -31.1040  -13.9750   11.9490 C   0  0  0  0  0  0  0  0  0  0  0  0
  -30.4520  -14.3160   13.1350 C   0  0  0  0  0  0  0  0  0  0  0  0
  -30.8920  -13.7900   14.3620 C   0  0  0  0  0  0  0  0  0  0  0  0
  -32.0220  -12.9570   14.3840 C   0  0  0  0  0  0  0  0  0  0  0  0
  -33.5560  -10.5310   13.9210 F   0  0  0  0  0  0  0  0  0  0  0  0
  -33.8740  -11.6830   13.2240 C   0  0  0  0  0  0  0  0  0  0  0  0
  -34.9440  -12.3020   13.8400 F   0  0  0  0  0  0  0  0  0  0  0  0
  -34.2390  -11.3240   11.9380 F   0  0  0  0  0  0  0  0  0  0  0  0
  -28.1330  -13.2060   19.8520 C   0  0  0  0  0  0  0  0  0  0  0  0
  -28.6270  -13.6870   21.0740 C   0  0  0  0  0  0  0  0  0  0  0  0
  -27.7470  -14.1470   22.0590 C   0  0  0  0  0  0  0  0  0  0  0  0
  -26.3690  -14.1420   21.8230 C   0  0  0  0  0  0  0  0  0  0  0  0
  -25.8700  -13.6850   20.6010 C   0  0  0  0  0  0  0  0  0  0  0  0
  -26.7470  -13.2250   19.6150 C   0  0  0  0  0  0  0  0  0  0  0  0
  -29.1812  -12.0075   19.5589 H   0  0  0  0  0  0  0  0  0  0  0  0
  -29.1159  -10.9061   20.7881 H   0  0  0  0  0  0  0  0  0  0  0  0
  -31.7463   -8.2303   18.8795 H   0  0  0  0  0  0  0  0  0  0  0  0
  -31.9268   -9.7405   16.9900 H   0  0  0  0  0  0  0  0  0  0  0  0
  -31.3309  -11.7982   15.9843 H   0  0  0  0  0  0  0  0  0  0  0  0
  -32.6769  -12.8610   11.0911 H   0  0  0  0  0  0  0  0  0  0  0  0
  -30.7654  -14.3517   11.0498 H   0  0  0  0  0  0  0  0  0  0  0  0
  -29.6435  -14.9570   13.1110 H   0  0  0  0  0  0  0  0  0  0  0  0
  -32.3592  -12.5793   15.2832 H   0  0  0  0  0  0  0  0  0  0  0  0
  -29.6443  -13.7014   21.2468 H   0  0  0  0  0  0  0  0  0  0  0  0
  -28.1149  -14.4901   22.9601 H   0  0  0  0  0  0  0  0  0  0  0  0
  -25.7199  -14.4763   22.5523 H   0  0  0  0  0  0  0  0  0  0  0  0
  -24.8529  -13.6871   20.4262 H   0  0  0  0  0  0  0  0  0  0  0  0
  -26.3760  -12.8979   18.7092 H   0  0  0  0  0  0  0  0  0  0  0  0
  1 18  1  0  0  0  0
  1 13  1  0  0  0  0
  1  2  1  0  0  0  0
  2 12  1  0  0  0  0
  2  3  2  0  0  0  0
  3  4  1  0  0  0  0
  4  5  1  0  0  0  0
  4 24  1  0  0  0  0
  4 30  1  1  0  0  0
  5 11  2  0  0  0  0
  5  6  1  0  0  0  0
  6  7  2  0  0  0  0
  6 31  1  0  0  0  0
  7  9  1  0  0  0  0
  7  8  1  0  0  0  0
  9 10  2  0  0  0  0
  9 32  1  0  0  0  0
 10 11  1  0  0  0  0
 10 33  1  0  0  0  0
 11 12  1  0  0  0  0
 12 34  1  0  0  0  0
 14 15  2  0  0  0  0
 14 21  1  0  0  0  0
 14 19  1  0  0  0  0
 15 16  1  0  0  0  0
 15 35  1  0  0  0  0
 16 17  2  0  0  0  0
 16 36  1  0  0  0  0
 17 18  1  0  0  0  0
 17 37  1  0  0  0  0
 18 19  2  0  0  0  0
 19 38  1  0  0  0  0
 20 21  1  0  0  0  0
 21 23  1  0  0  0  0
 21 22  1  0  0  0  0
 24 29  2  0  0  0  0
 24 25  1  0  0  0  0
 25 26  2  0  0  0  0
 25 39  1  0  0  0  0
 26 27  1  0  0  0  0
 26 40  1  0  0  0  0
 27 28  2  0  0  0  0
 27 41  1  0  0  0  0
 28 29  1  0  0  0  0
 28 42  1  0  0  0  0
 29 43  1  0  0  0  0
M  END
>  <MASTER>
        0    0    0    0    0    0    0    0   29    0   29    0

$$$$
