=
 OpenBabel05162522053D

 29 32  0  0  1  0  0  0  0  0999 V2000
  -30.2440  -14.1320   15.5980 N   0  0  0  0  0  0  0  0  0  0  0  0
  -30.0700  -13.2230   16.6950 C   0  0  0  0  0  0  0  0  0  0  0  0
  -29.2580  -13.5700   17.7280 N   0  0  0  0  0  0  0  0  0  0  0  0
  -29.0730  -12.7570   18.8030 C   0  0  2  0  0  3  0  0  0  0  0  0
  -29.7730  -11.5300   18.8690 C   0  0  0  0  0  0  0  0  0  0  0  0
  -29.7010  -10.6580   19.9750 C   0  0  0  0  0  3  0  0  0  0  0  0
  -30.4210   -9.4560   19.9740 C   0  0  0  0  0  0  0  0  0  0  0  0
  -30.3200   -8.3740   21.3500 Cl  0  0  0  0  0  0  0  0  0  0  0  0
  -31.2250   -9.1210   18.8810 C   0  0  0  0  0  3  0  0  0  0  0  0
  -31.3250   -9.9880   17.7910 C   0  0  0  0  0  3  0  0  0  0  0  0
  -30.6110  -11.1920   17.7820 C   0  0  0  0  0  0  0  0  0  0  0  0
  -30.7400  -12.0420   16.7330 N   0  0  0  0  0  2  0  0  0  0  0  0
  -29.9550  -15.1250   15.7450 H   0  0  0  0  0  0  0  0  0  0  0  0
  -32.7000  -12.6310   13.1960 C   0  0  0  0  0  0  0  0  0  0  0  0
  -32.2130  -13.1260   11.9740 C   0  0  0  0  0  3  0  0  0  0  0  0
  -31.1040  -13.9750   11.9490 C   0  0  0  0  0  3  0  0  0  0  0  0
  -30.4520  -14.3160   13.1350 C   0  0  0  0  0  3  0  0  0  0  0  0
  -30.8920  -13.7900   14.3620 C   0  0  0  0  0  0  0  0  0  0  0  0
  -32.0220  -12.9570   14.3840 C   0  0  0  0  0  3  0  0  0  0  0  0
  -33.5560  -10.5310   13.9210 F   0  0  0  0  0  0  0  0  0  0  0  0
  -33.8740  -11.6830   13.2240 C   0  0  0  0  0  0  0  0  0  0  0  0
  -34.9440  -12.3020   13.8400 F   0  0  0  0  0  0  0  0  0  0  0  0
  -34.2390  -11.3240   11.9380 F   0  0  0  0  0  0  0  0  0  0  0  0
  -28.1330  -13.2060   19.8520 C   0  0  0  0  0  0  0  0  0  0  0  0
  -28.6270  -13.6870   21.0740 C   0  0  0  0  0  3  0  0  0  0  0  0
  -27.7470  -14.1470   22.0590 C   0  0  0  0  0  3  0  0  0  0  0  0
  -26.3690  -14.1420   21.8230 C   0  0  0  0  0  3  0  0  0  0  0  0
  -25.8700  -13.6850   20.6010 C   0  0  0  0  0  3  0  0  0  0  0  0
  -26.7470  -13.2250   19.6150 C   0  0  0  0  0  3  0  0  0  0  0  0
  1 13  1  0  0  0  0
  1  2  1  0  0  0  0
  2 12  1  0  0  0  0
  2  3  2  0  0  0  0
  3  4  1  0  0  0  0
  4  5  1  0  0  0  0
  4 24  1  6  0  0  0
  5  6  1  0  0  0  0
  7  6  2  0  0  0  0
  7  8  1  0  0  0  0
  9  7  1  0  0  0  0
 10  9  2  0  0  0  0
 11 10  1  0  0  0  0
 11  5  2  0  0  0  0
 12 11  1  0  0  0  0
 14 21  1  0  0  0  0
 14 19  1  0  0  0  0
 15 14  2  0  0  0  0
 16 15  1  0  0  0  0
 16 17  2  0  0  0  0
 17 18  1  0  0  0  0
 18 19  2  0  0  0  0
 18  1  1  0  0  0  0
 21 22  1  0  0  0  0
 21 20  1  0  0  0  0
 23 21  1  0  0  0  0
 24 25  1  0  0  0  0
 25 26  2  0  0  0  0
 27 26  1  0  0  0  0
 28 27  2  0  0  0  0
 29 24  2  0  0  0  0
 29 28  1  0  0  0  0
M  END
>  <MODEL>
1

>  <REMARK>
 VINA RESULT:    -5.884      0.000      0.000
 INTER + INTRA:          -7.165
 INTER:                  -6.916
 INTRA:                  -0.249
 UNBOUND:                -0.249
  Name = 
  3 active torsions:
  status: ('A' for Active; 'I' for Inactive)
    1  A    between atoms: C_2  and  C_5
    2  A    between atoms: C_9  and  N_11
    3  A    between atoms: C_14  and  C_15
                            x       y       z     vdW  Elec       q    Type
                         _______ _______ _______ _____ _____    ______ ____

>  <TORSDO>
F 3

$$$$
